<?xml version='1.0' encoding='UTF-8'?>
<nodes xmlns:xsi="http://www.w3.org/2001/XMLSchema-instance" version="0.27" xsi:noNamespaceSchemaLocation="http://sumo.dlr.de/xsd/edges_file.xsd"><node avg_slowdown_ratio="0.722582193423" id="node_06x09" type="right_before_left" weight_num="3.0" weight_sum="2.16774658027" x="600.00" y="900.00" />
    <node avg_slowdown_ratio="0.70662347012" id="node_07x10" type="right_before_left" weight_num="4.0" weight_sum="2.82649388048" x="700.00" y="1000.00" />
    <node avg_slowdown_ratio="0.633789296857" id="node_06x10" type="right_before_left" weight_num="3.0" weight_sum="1.90136789057" x="600.00" y="1000.00" />
    <node avg_slowdown_ratio="0.627549796017" id="node_05x10" type="right_before_left" weight_num="3.0" weight_sum="1.88264938805" x="500.00" y="1000.00" />
    <node avg_slowdown_ratio="0.61555075594" id="node_05x09" type="right_before_left" weight_num="3.0" weight_sum="1.84665226782" x="500.00" y="900.00" />
    <node avg_slowdown_ratio="0.587652987762" id="node_04x10" type="right_before_left" weight_num="4.0" weight_sum="2.35061195105" x="400.00" y="1000.00" />
    <node avg_slowdown_ratio="0.547516198703" id="node_06x08" type="right_before_left" weight_num="4.0" weight_sum="2.19006479481" x="600.00" y="800.00" />
    <node avg_slowdown_ratio="0.465082793377" id="node_09x14" type="right_before_left" weight_num="3.0" weight_sum="1.39524838013" x="900.00" y="1400.00" />
    <node avg_slowdown_ratio="0.454043676503" id="node_10x08" type="right_before_left" weight_num="3.0" weight_sum="1.36213102951" x="1000.00" y="800.00" />
    <node avg_slowdown_ratio="0.45158387329" id="node_06x06" type="right_before_left" weight_num="4.0" weight_sum="1.80633549316" x="600.00" y="600.00" />
    <node avg_slowdown_ratio="0.446124310057" id="node_09x08" type="right_before_left" weight_num="3.0" weight_sum="1.33837293017" x="900.00" y="800.00" />
    <node avg_slowdown_ratio="0.444204463643" id="node_08x10" type="right_before_left" weight_num="3.0" weight_sum="1.33261339093" x="800.00" y="1000.00" />
    <node avg_slowdown_ratio="0.410367170627" id="node_07x11" type="right_before_left" weight_num="4.0" weight_sum="1.64146868251" x="700.00" y="1100.00" />
    <node avg_slowdown_ratio="0.386369090473" id="node_06x11" type="right_before_left" weight_num="3.0" weight_sum="1.15910727142" x="600.00" y="1100.00" />
    <node avg_slowdown_ratio="0.34701223902" id="node_07x04" type="right_before_left" weight_num="3.0" weight_sum="1.04103671706" x="700.00" y="400.00" />
    <node avg_slowdown_ratio="0.344852411807" id="node_06x07" type="right_before_left" weight_num="4.0" weight_sum="1.37940964723" x="600.00" y="700.00" />
    <node avg_slowdown_ratio="0.344852411807" id="node_09x15" type="right_before_left" weight_num="3.0" weight_sum="1.03455723542" x="900.00" y="1500.00" />
    <node avg_slowdown_ratio="0.333813294937" id="node_06x05" type="right_before_left" weight_num="3.0" weight_sum="1.00143988481" x="600.00" y="500.00" />
    <node avg_slowdown_ratio="0.332433405327" id="node_15x05" type="right_before_left" weight_num="4.0" weight_sum="1.32973362131" x="1500.00" y="500.00" />
    <node avg_slowdown_ratio="0.330693544516" id="node_07x12" type="right_before_left" weight_num="3.0" weight_sum="0.992080633549" x="700.00" y="1200.00" />
    <node avg_slowdown_ratio="0.329493640509" id="node_08x15" type="right_before_left" weight_num="3.0" weight_sum="0.988480921526" x="800.00" y="1500.00" />
    <node avg_slowdown_ratio="0.328773698104" id="node_04x11" type="right_before_left" weight_num="3.0" weight_sum="0.986321094312" x="400.00" y="1100.00" />
    <node avg_slowdown_ratio="0.328533717303" id="node_14x17" type="right_before_left" weight_num="3.0" weight_sum="0.985601151909" x="1400.00" y="1700.00" />
    <node avg_slowdown_ratio="0.325413966885" id="node_14x14" type="right_before_left" weight_num="4.0" weight_sum="1.30165586754" x="1400.00" y="1400.00" />
    <node avg_slowdown_ratio="0.323494120471" id="node_08x13" type="right_before_left" weight_num="3.0" weight_sum="0.970482361412" x="800.00" y="1300.00" />
    <node avg_slowdown_ratio="0.319474442045" id="node_15x06" type="right_before_left" weight_num="4.0" weight_sum="1.27789776818" x="1500.00" y="600.00" />
    <node avg_slowdown_ratio="0.317494600432" id="node_11x02" type="right_before_left" weight_num="3.0" weight_sum="0.952483801295" x="1100.00" y="200.00" />
    <node avg_slowdown_ratio="0.316294696424" id="node_17x20" type="right_before_left" weight_num="3.0" weight_sum="0.948884089273" x="1700.00" y="2000.00" />
    <node avg_slowdown_ratio="0.314614830813" id="node_06x04" type="right_before_left" weight_num="3.0" weight_sum="0.94384449244" x="600.00" y="400.00" />
    <node avg_slowdown_ratio="0.314614830813" id="node_11x05" type="right_before_left" weight_num="4.0" weight_sum="1.25845932325" x="1100.00" y="500.00" />
    <node avg_slowdown_ratio="0.311735061195" id="node_03x10" type="right_before_left" weight_num="4.0" weight_sum="1.24694024478" x="300.00" y="1000.00" />
    <node avg_slowdown_ratio="0.311735061195" id="node_12x17" type="right_before_left" weight_num="3.0" weight_sum="0.935205183585" x="1200.00" y="1700.00" />
    <node avg_slowdown_ratio="0.311195104392" id="node_14x11" type="right_before_left" weight_num="4.0" weight_sum="1.24478041757" x="1400.00" y="1100.00" />
    <node avg_slowdown_ratio="0.31101511879" id="node_09x10" type="right_before_left" weight_num="3.0" weight_sum="0.933045356371" x="900.00" y="1000.00" />
    <node avg_slowdown_ratio="0.30957523398" id="node_11x12" type="right_before_left" weight_num="4.0" weight_sum="1.23830093592" x="1100.00" y="1200.00" />
    <node avg_slowdown_ratio="0.309095272378" id="node_17x04" type="right_before_left" weight_num="3.0" weight_sum="0.927285817134" x="1700.00" y="400.00" />
    <node avg_slowdown_ratio="0.307655387569" id="node_09x04" type="right_before_left" weight_num="3.0" weight_sum="0.922966162707" x="900.00" y="400.00" />
    <node avg_slowdown_ratio="0.303335733141" id="node_08x12" type="right_before_left" weight_num="3.0" weight_sum="0.910007199424" x="800.00" y="1200.00" />
    <node avg_slowdown_ratio="0.299496040317" id="node_13x08" type="right_before_left" weight_num="3.0" weight_sum="0.89848812095" x="1300.00" y="800.00" />
    <node avg_slowdown_ratio="0.298296136309" id="node_07x05" type="right_before_left" weight_num="3.0" weight_sum="0.894888408928" x="700.00" y="500.00" />
    <node avg_slowdown_ratio="0.297156227502" id="node_10x05" type="right_before_left" weight_num="4.0" weight_sum="1.18862491001" x="1000.00" y="500.00" />
    <node avg_slowdown_ratio="0.2967962563" id="node_07x03" type="right_before_left" weight_num="4.0" weight_sum="1.1871850252" x="700.00" y="300.00" />
    <node avg_slowdown_ratio="0.296616270698" id="node_05x15" type="right_before_left" weight_num="3.0" weight_sum="0.889848812095" x="500.00" y="1500.00" />
    <node avg_slowdown_ratio="0.294816414687" id="node_10x06" type="right_before_left" weight_num="4.0" weight_sum="1.17926565875" x="1000.00" y="600.00" />
    <node avg_slowdown_ratio="0.294816414687" id="node_10x07" type="right_before_left" weight_num="4.0" weight_sum="1.17926565875" x="1000.00" y="700.00" />
    <node avg_slowdown_ratio="0.294276457883" id="node_04x19" type="right_before_left" weight_num="4.0" weight_sum="1.17710583153" x="400.00" y="1900.00" />
    <node avg_slowdown_ratio="0.293976481881" id="node_11x15" type="right_before_left" weight_num="3.0" weight_sum="0.881929445644" x="1100.00" y="1500.00" />
    <node avg_slowdown_ratio="0.29373650108" id="node_20x05" type="right_before_left" weight_num="1.0" weight_sum="0.29373650108" x="2000.00" y="500.00" />
    <node avg_slowdown_ratio="0.29355651548" id="node_14x09" type="right_before_left" weight_num="4.0" weight_sum="1.17422606192" x="1400.00" y="900.00" />
    <node avg_slowdown_ratio="0.293256539477" id="node_13x11" type="right_before_left" weight_num="3.0" weight_sum="0.87976961843" x="1300.00" y="1100.00" />
    <node avg_slowdown_ratio="0.292476601873" id="node_09x01" type="right_before_left" weight_num="4.0" weight_sum="1.16990640749" x="900.00" y="100.00" />
    <node avg_slowdown_ratio="0.29211663067" id="node_10x04" type="right_before_left" weight_num="4.0" weight_sum="1.16846652268" x="1000.00" y="400.00" />
    <node avg_slowdown_ratio="0.291816654668" id="node_15x03" type="right_before_left" weight_num="3.0" weight_sum="0.875449964003" x="1500.00" y="300.00" />
    <node avg_slowdown_ratio="0.291576673866" id="node_09x06" type="right_before_left" weight_num="3.0" weight_sum="0.874730021599" x="900.00" y="600.00" />
    <node avg_slowdown_ratio="0.289656827454" id="node_02x12" type="right_before_left" weight_num="3.0" weight_sum="0.868970482361" x="200.00" y="1200.00" />
    <node avg_slowdown_ratio="0.288156947445" id="node_10x13" type="right_before_left" weight_num="4.0" weight_sum="1.15262778978" x="1000.00" y="1300.00" />
    <node avg_slowdown_ratio="0.287017038637" id="node_05x19" type="right_before_left" weight_num="3.0" weight_sum="0.861051115911" x="500.00" y="1900.00" />
    <node avg_slowdown_ratio="0.286777057835" id="node_05x14" type="right_before_left" weight_num="3.0" weight_sum="0.860331173505" x="500.00" y="1400.00" />
    <node avg_slowdown_ratio="0.286297096232" id="node_15x17" type="right_before_left" weight_num="3.0" weight_sum="0.858891288697" x="1500.00" y="1700.00" />
    <node avg_slowdown_ratio="0.284737221022" id="node_19x14" type="right_before_left" weight_num="2.0" weight_sum="0.569474442045" x="1900.00" y="1400.00" />
    <node avg_slowdown_ratio="0.284137269018" id="node_20x10" type="right_before_left" weight_num="3.0" weight_sum="0.852411807055" x="2000.00" y="1000.00" />
    <node avg_slowdown_ratio="0.283177345812" id="node_03x19" type="right_before_left" weight_num="3.0" weight_sum="0.849532037437" x="300.00" y="1900.00" />
    <node avg_slowdown_ratio="0.282577393808" id="node_02x14" type="right_before_left" weight_num="2.0" weight_sum="0.565154787617" x="200.00" y="1400.00" />
    <node avg_slowdown_ratio="0.282217422605" id="node_16x17" type="right_before_left" weight_num="4.0" weight_sum="1.12886969042" x="1600.00" y="1700.00" />
    <node avg_slowdown_ratio="0.281977441805" id="node_09x02" type="right_before_left" weight_num="3.0" weight_sum="0.845932325414" x="900.00" y="200.00" />
    <node avg_slowdown_ratio="0.281857451405" id="node_03x14" type="right_before_left" weight_num="4.0" weight_sum="1.12742980562" x="300.00" y="1400.00" />
    <node avg_slowdown_ratio="0.281857451404" id="node_18x03" type="right_before_left" weight_num="2.0" weight_sum="0.563714902808" x="1800.00" y="300.00" />
    <node avg_slowdown_ratio="0.2812574994" id="node_18x17" type="right_before_left" weight_num="3.0" weight_sum="0.8437724982" x="1800.00" y="1700.00" />
    <node avg_slowdown_ratio="0.27969762419" id="node_02x16" type="right_before_left" weight_num="2.0" weight_sum="0.55939524838" x="200.00" y="1600.00" />
    <node avg_slowdown_ratio="0.278617710583" id="node_18x15" type="right_before_left" weight_num="4.0" weight_sum="1.11447084233" x="1800.00" y="1500.00" />
    <node avg_slowdown_ratio="0.278257739381" id="node_08x11" type="right_before_left" weight_num="2.0" weight_sum="0.556515478762" x="800.00" y="1100.00" />
    <node avg_slowdown_ratio="0.276817854573" id="node_05x17" type="right_before_left" weight_num="4.0" weight_sum="1.10727141829" x="500.00" y="1700.00" />
    <node avg_slowdown_ratio="0.276817854571" id="node_08x09" type="right_before_left" weight_num="2.0" weight_sum="0.553635709143" x="800.00" y="900.00" />
    <node avg_slowdown_ratio="0.276457883369" id="node_00x03" type="right_before_left" weight_num="3.0" weight_sum="0.829373650108" x="0.00" y="300.00" />
    <node avg_slowdown_ratio="0.275737940964" id="node_19x04" type="right_before_left" weight_num="2.0" weight_sum="0.551475881929" x="1900.00" y="400.00" />
    <node avg_slowdown_ratio="0.275257979362" id="node_13x09" type="right_before_left" weight_num="3.0" weight_sum="0.825773938085" x="1300.00" y="900.00" />
    <node avg_slowdown_ratio="0.275197984163" id="node_18x06" type="right_before_left" weight_num="4.0" weight_sum="1.10079193665" x="1800.00" y="600.00" />
    <node avg_slowdown_ratio="0.274658027358" id="node_07x08" type="right_before_left" weight_num="2.0" weight_sum="0.549316054715" x="700.00" y="800.00" />
    <node avg_slowdown_ratio="0.274298056156" id="node_16x13" type="right_before_left" weight_num="3.0" weight_sum="0.822894168467" x="1600.00" y="1300.00" />
    <node avg_slowdown_ratio="0.274118070555" id="node_14x08" type="right_before_left" weight_num="4.0" weight_sum="1.09647228222" x="1400.00" y="800.00" />
    <node avg_slowdown_ratio="0.273758099353" id="node_12x05" type="right_before_left" weight_num="4.0" weight_sum="1.09503239741" x="1200.00" y="500.00" />
    <node avg_slowdown_ratio="0.272858171347" id="node_15x11" type="right_before_left" weight_num="3.0" weight_sum="0.81857451404" x="1500.00" y="1100.00" />
    <node avg_slowdown_ratio="0.272858171346" id="node_13x17" type="right_before_left" weight_num="3.0" weight_sum="0.818574514039" x="1300.00" y="1700.00" />
    <node avg_slowdown_ratio="0.272378209743" id="node_08x14" type="right_before_left" weight_num="3.0" weight_sum="0.81713462923" x="800.00" y="1400.00" />
    <node avg_slowdown_ratio="0.272378209743" id="node_17x10" type="right_before_left" weight_num="3.0" weight_sum="0.81713462923" x="1700.00" y="1000.00" />
    <node avg_slowdown_ratio="0.272138228942" id="node_06x03" type="right_before_left" weight_num="3.0" weight_sum="0.816414686825" x="600.00" y="300.00" />
    <node avg_slowdown_ratio="0.27189824814" id="node_11x07" type="right_before_left" weight_num="3.0" weight_sum="0.815694744421" x="1100.00" y="700.00" />
    <node avg_slowdown_ratio="0.271598272137" id="node_11x06" type="right_before_left" weight_num="4.0" weight_sum="1.08639308855" x="1100.00" y="600.00" />
    <node avg_slowdown_ratio="0.271418286537" id="node_09x05" type="right_before_left" weight_num="2.0" weight_sum="0.542836573074" x="900.00" y="500.00" />
    <node avg_slowdown_ratio="0.270698344132" id="node_07x02" type="right_before_left" weight_num="2.0" weight_sum="0.541396688265" x="700.00" y="200.00" />
    <node avg_slowdown_ratio="0.27033837293" id="node_12x06" type="right_before_left" weight_num="2.0" weight_sum="0.54067674586" x="1200.00" y="600.00" />
    <node avg_slowdown_ratio="0.269738420926" id="node_19x15" type="right_before_left" weight_num="3.0" weight_sum="0.809215262779" x="1900.00" y="1500.00" />
    <node avg_slowdown_ratio="0.269498440125" id="node_10x14" type="right_before_left" weight_num="3.0" weight_sum="0.808495320374" x="1000.00" y="1400.00" />
    <node avg_slowdown_ratio="0.269018478522" id="node_06x17" type="right_before_left" weight_num="3.0" weight_sum="0.807055435565" x="600.00" y="1700.00" />
    <node avg_slowdown_ratio="0.267578593713" id="node_01x00" type="right_before_left" weight_num="3.0" weight_sum="0.802735781138" x="100.00" y="0.00" />
    <node avg_slowdown_ratio="0.267458603312" id="node_01x19" type="right_before_left" weight_num="2.0" weight_sum="0.534917206623" x="100.00" y="1900.00" />
    <node avg_slowdown_ratio="0.267338612911" id="node_02x01" type="right_before_left" weight_num="3.0" weight_sum="0.802015838733" x="200.00" y="100.00" />
    <node avg_slowdown_ratio="0.26709863211" id="node_07x07" type="right_before_left" weight_num="2.0" weight_sum="0.534197264219" x="700.00" y="700.00" />
    <node avg_slowdown_ratio="0.266738660907" id="node_16x09" type="right_before_left" weight_num="2.0" weight_sum="0.533477321815" x="1600.00" y="900.00" />
    <node avg_slowdown_ratio="0.266378689705" id="node_11x19" type="right_before_left" weight_num="3.0" weight_sum="0.799136069114" x="1100.00" y="1900.00" />
    <node avg_slowdown_ratio="0.2656587473" id="node_07x09" type="right_before_left" weight_num="2.0" weight_sum="0.531317494601" x="700.00" y="900.00" />
    <node avg_slowdown_ratio="0.265418766499" id="node_07x06" type="right_before_left" weight_num="3.0" weight_sum="0.796256299496" x="700.00" y="600.00" />
    <node avg_slowdown_ratio="0.265418766499" id="node_18x16" type="right_before_left" weight_num="3.0" weight_sum="0.796256299497" x="1800.00" y="1600.00" />
    <node avg_slowdown_ratio="0.265418766498" id="node_04x08" type="right_before_left" weight_num="3.0" weight_sum="0.796256299495" x="400.00" y="800.00" />
    <node avg_slowdown_ratio="0.265118790497" id="node_01x10" type="right_before_left" weight_num="4.0" weight_sum="1.06047516199" x="100.00" y="1000.00" />
    <node avg_slowdown_ratio="0.264578833693" id="node_15x04" type="right_before_left" weight_num="4.0" weight_sum="1.05831533477" x="1500.00" y="400.00" />
    <node avg_slowdown_ratio="0.264578833693" id="node_15x13" type="right_before_left" weight_num="2.0" weight_sum="0.529157667387" x="1500.00" y="1300.00" />
    <node avg_slowdown_ratio="0.264578833693" id="node_18x12" type="right_before_left" weight_num="2.0" weight_sum="0.529157667386" x="1800.00" y="1200.00" />
    <node avg_slowdown_ratio="0.264218862491" id="node_12x18" type="right_before_left" weight_num="3.0" weight_sum="0.792656587473" x="1200.00" y="1800.00" />
    <node avg_slowdown_ratio="0.26397888169" id="node_14x10" type="right_before_left" weight_num="3.0" weight_sum="0.791936645069" x="1400.00" y="1000.00" />
    <node avg_slowdown_ratio="0.263138948884" id="node_04x18" type="right_before_left" weight_num="2.0" weight_sum="0.526277897768" x="400.00" y="1800.00" />
    <node avg_slowdown_ratio="0.262778977681" id="node_13x07" type="right_before_left" weight_num="2.0" weight_sum="0.525557955363" x="1300.00" y="700.00" />
    <node avg_slowdown_ratio="0.26253899688" id="node_15x18" type="right_before_left" weight_num="3.0" weight_sum="0.787616990641" x="1500.00" y="1800.00" />
    <node avg_slowdown_ratio="0.26241900648" id="node_10x12" type="right_before_left" weight_num="2.0" weight_sum="0.524838012959" x="1000.00" y="1200.00" />
    <node avg_slowdown_ratio="0.262299016079" id="node_20x08" type="right_before_left" weight_num="3.0" weight_sum="0.786897048236" x="2000.00" y="800.00" />
    <node avg_slowdown_ratio="0.262059035277" id="node_15x15" type="right_before_left" weight_num="3.0" weight_sum="0.786177105831" x="1500.00" y="1500.00" />
    <node avg_slowdown_ratio="0.261819054476" id="node_08x17" type="right_before_left" weight_num="3.0" weight_sum="0.785457163427" x="800.00" y="1700.00" />
    <node avg_slowdown_ratio="0.26097912167" id="node_08x18" type="right_before_left" weight_num="2.0" weight_sum="0.52195824334" x="800.00" y="1800.00" />
    <node avg_slowdown_ratio="0.260619150468" id="node_01x20" type="right_before_left" weight_num="3.0" weight_sum="0.781857451404" x="100.00" y="2000.00" />
    <node avg_slowdown_ratio="0.260619150468" id="node_07x20" type="right_before_left" weight_num="3.0" weight_sum="0.781857451404" x="700.00" y="2000.00" />
    <node avg_slowdown_ratio="0.260619150468" id="node_15x12" type="right_before_left" weight_num="2.0" weight_sum="0.521238300936" x="1500.00" y="1200.00" />
    <node avg_slowdown_ratio="0.260379169667" id="node_00x07" type="right_before_left" weight_num="3.0" weight_sum="0.781137509" x="0.00" y="700.00" />
    <node avg_slowdown_ratio="0.260379169667" id="node_06x13" type="right_before_left" weight_num="3.0" weight_sum="0.781137509" x="600.00" y="1300.00" />
    <node avg_slowdown_ratio="0.260379169666" id="node_13x18" type="right_before_left" weight_num="3.0" weight_sum="0.781137508999" x="1300.00" y="1800.00" />
    <node avg_slowdown_ratio="0.259899208063" id="node_06x12" type="right_before_left" weight_num="3.0" weight_sum="0.77969762419" x="600.00" y="1200.00" />
    <node avg_slowdown_ratio="0.259899208063" id="node_07x17" type="right_before_left" weight_num="3.0" weight_sum="0.779697624189" x="700.00" y="1700.00" />
    <node avg_slowdown_ratio="0.259659227262" id="node_05x12" type="right_before_left" weight_num="3.0" weight_sum="0.778977681785" x="500.00" y="1200.00" />
    <node avg_slowdown_ratio="0.258699304056" id="node_04x16" type="right_before_left" weight_num="3.0" weight_sum="0.776097912167" x="400.00" y="1600.00" />
    <node avg_slowdown_ratio="0.258219342452" id="node_11x08" type="right_before_left" weight_num="3.0" weight_sum="0.774658027357" x="1100.00" y="800.00" />
    <node avg_slowdown_ratio="0.258099352053" id="node_05x18" type="right_before_left" weight_num="4.0" weight_sum="1.03239740821" x="500.00" y="1800.00" />
    <node avg_slowdown_ratio="0.258099352052" id="node_09x07" type="right_before_left" weight_num="2.0" weight_sum="0.516198704104" x="900.00" y="700.00" />
    <node avg_slowdown_ratio="0.25773938085" id="node_12x10" type="right_before_left" weight_num="3.0" weight_sum="0.773218142549" x="1200.00" y="1000.00" />
    <node avg_slowdown_ratio="0.257739380849" id="node_09x00" type="right_before_left" weight_num="2.0" weight_sum="0.515478761699" x="900.00" y="0.00" />
    <node avg_slowdown_ratio="0.257259419246" id="node_12x13" type="right_before_left" weight_num="3.0" weight_sum="0.771778257739" x="1200.00" y="1300.00" />
    <node avg_slowdown_ratio="0.257019438445" id="node_00x17" type="right_before_left" weight_num="3.0" weight_sum="0.771058315334" x="0.00" y="1700.00" />
    <node avg_slowdown_ratio="0.257019438445" id="node_04x05" type="right_before_left" weight_num="3.0" weight_sum="0.771058315335" x="400.00" y="500.00" />
    <node avg_slowdown_ratio="0.257019438445" id="node_11x18" type="right_before_left" weight_num="3.0" weight_sum="0.771058315334" x="1100.00" y="1800.00" />
    <node avg_slowdown_ratio="0.256659467243" id="node_08x16" type="right_before_left" weight_num="2.0" weight_sum="0.513318934486" x="800.00" y="1600.00" />
    <node avg_slowdown_ratio="0.256659467242" id="node_03x18" type="right_before_left" weight_num="2.0" weight_sum="0.513318934485" x="300.00" y="1800.00" />
    <node avg_slowdown_ratio="0.256659467242" id="node_15x10" type="right_before_left" weight_num="2.0" weight_sum="0.513318934485" x="1500.00" y="1000.00" />
    <node avg_slowdown_ratio="0.25629949604" id="node_02x02" type="right_before_left" weight_num="2.0" weight_sum="0.51259899208" x="200.00" y="200.00" />
    <node avg_slowdown_ratio="0.25629949604" id="node_02x18" type="right_before_left" weight_num="3.0" weight_sum="0.768898488121" x="200.00" y="1800.00" />
    <node avg_slowdown_ratio="0.255819534437" id="node_09x16" type="right_before_left" weight_num="3.0" weight_sum="0.767458603312" x="900.00" y="1600.00" />
    <node avg_slowdown_ratio="0.255579553636" id="node_00x02" type="right_before_left" weight_num="3.0" weight_sum="0.766738660907" x="0.00" y="200.00" />
    <node avg_slowdown_ratio="0.255579553636" id="node_03x00" type="right_before_left" weight_num="2.0" weight_sum="0.511159107272" x="300.00" y="0.00" />
    <node avg_slowdown_ratio="0.255579553636" id="node_04x12" type="right_before_left" weight_num="2.0" weight_sum="0.511159107271" x="400.00" y="1200.00" />
    <node avg_slowdown_ratio="0.255339572834" id="node_16x20" type="right_before_left" weight_num="3.0" weight_sum="0.766018718503" x="1600.00" y="2000.00" />
    <node avg_slowdown_ratio="0.254859611231" id="node_01x14" type="right_before_left" weight_num="3.0" weight_sum="0.764578833694" x="100.00" y="1400.00" />
    <node avg_slowdown_ratio="0.254499640029" id="node_00x01" type="right_before_left" weight_num="2.0" weight_sum="0.508999280057" x="0.00" y="100.00" />
    <node avg_slowdown_ratio="0.254499640029" id="node_06x02" type="right_before_left" weight_num="2.0" weight_sum="0.508999280058" x="600.00" y="200.00" />
    <node avg_slowdown_ratio="0.254499640029" id="node_11x20" type="right_before_left" weight_num="2.0" weight_sum="0.508999280058" x="1100.00" y="2000.00" />
    <node avg_slowdown_ratio="0.253899688025" id="node_03x03" type="right_before_left" weight_num="3.0" weight_sum="0.761699064075" x="300.00" y="300.00" />
    <node avg_slowdown_ratio="0.253899688025" id="node_13x12" type="right_before_left" weight_num="3.0" weight_sum="0.761699064075" x="1300.00" y="1200.00" />
    <node avg_slowdown_ratio="0.253779697624" id="node_05x01" type="right_before_left" weight_num="2.0" weight_sum="0.507559395249" x="500.00" y="100.00" />
    <node avg_slowdown_ratio="0.253659707223" id="node_10x18" type="right_before_left" weight_num="3.0" weight_sum="0.76097912167" x="1000.00" y="1800.00" />
    <node avg_slowdown_ratio="0.253419726422" id="node_02x09" type="right_before_left" weight_num="2.0" weight_sum="0.506839452844" x="200.00" y="900.00" />
    <node avg_slowdown_ratio="0.253419726422" id="node_18x08" type="right_before_left" weight_num="2.0" weight_sum="0.506839452844" x="1800.00" y="800.00" />
    <node avg_slowdown_ratio="0.25305975522" id="node_05x08" type="right_before_left" weight_num="4.0" weight_sum="1.01223902088" x="500.00" y="800.00" />
    <node avg_slowdown_ratio="0.252699784018" id="node_11x09" type="right_before_left" weight_num="3.0" weight_sum="0.758099352053" x="1100.00" y="900.00" />
    <node avg_slowdown_ratio="0.252699784017" id="node_03x02" type="right_before_left" weight_num="3.0" weight_sum="0.758099352051" x="300.00" y="200.00" />
    <node avg_slowdown_ratio="0.252699784017" id="node_16x05" type="right_before_left" weight_num="3.0" weight_sum="0.758099352052" x="1600.00" y="500.00" />
    <node avg_slowdown_ratio="0.252519798415" id="node_14x06" type="right_before_left" weight_num="4.0" weight_sum="1.01007919366" x="1400.00" y="600.00" />
    <node avg_slowdown_ratio="0.252339812815" id="node_19x08" type="right_before_left" weight_num="2.0" weight_sum="0.50467962563" x="1900.00" y="800.00" />
    <node avg_slowdown_ratio="0.251979841612" id="node_00x19" type="right_before_left" weight_num="2.0" weight_sum="0.503959683225" x="0.00" y="1900.00" />
    <node avg_slowdown_ratio="0.251979841612" id="node_06x15" type="right_before_left" weight_num="2.0" weight_sum="0.503959683225" x="600.00" y="1500.00" />
    <node avg_slowdown_ratio="0.251499880009" id="node_02x19" type="right_before_left" weight_num="3.0" weight_sum="0.754499640028" x="200.00" y="1900.00" />
    <node avg_slowdown_ratio="0.251499880009" id="node_15x07" type="right_before_left" weight_num="3.0" weight_sum="0.754499640028" x="1500.00" y="700.00" />
    <node avg_slowdown_ratio="0.251259899208" id="node_03x08" type="right_before_left" weight_num="3.0" weight_sum="0.753779697624" x="300.00" y="800.00" />
    <node avg_slowdown_ratio="0.251019918406" id="node_18x07" type="right_before_left" weight_num="3.0" weight_sum="0.753059755219" x="1800.00" y="700.00" />
    <node avg_slowdown_ratio="0.250899928006" id="node_09x20" type="right_before_left" weight_num="2.0" weight_sum="0.501799856012" x="900.00" y="2000.00" />
    <node avg_slowdown_ratio="0.250899928006" id="node_17x08" type="right_before_left" weight_num="2.0" weight_sum="0.501799856012" x="1700.00" y="800.00" />
    <node avg_slowdown_ratio="0.250299976002" id="node_15x08" type="right_before_left" weight_num="3.0" weight_sum="0.750899928006" x="1500.00" y="800.00" />
    <node avg_slowdown_ratio="0.250179985601" id="node_00x00" type="right_before_left" weight_num="2.0" weight_sum="0.500359971202" x="0.00" y="0.00" />
    <node avg_slowdown_ratio="0.250179985601" id="node_00x13" type="right_before_left" weight_num="2.0" weight_sum="0.500359971202" x="0.00" y="1300.00" />
    <node avg_slowdown_ratio="0.249820014399" id="node_12x03" type="right_before_left" weight_num="3.0" weight_sum="0.749460043196" x="1200.00" y="300.00" />
    <node avg_slowdown_ratio="0.249820014399" id="node_19x07" type="right_before_left" weight_num="2.0" weight_sum="0.499640028798" x="1900.00" y="700.00" />
    <node avg_slowdown_ratio="0.249820014398" id="node_05x20" type="right_before_left" weight_num="2.0" weight_sum="0.499640028797" x="500.00" y="2000.00" />
    <node avg_slowdown_ratio="0.249820014398" id="node_20x04" type="right_before_left" weight_num="2.0" weight_sum="0.499640028797" x="2000.00" y="400.00" />
    <node avg_slowdown_ratio="0.249580033597" id="node_00x06" type="right_before_left" weight_num="3.0" weight_sum="0.748740100792" x="0.00" y="600.00" />
    <node avg_slowdown_ratio="0.249580033597" id="node_04x03" type="right_before_left" weight_num="3.0" weight_sum="0.748740100792" x="400.00" y="300.00" />
    <node avg_slowdown_ratio="0.249460043197" id="node_19x06" type="right_before_left" weight_num="4.0" weight_sum="0.997840172786" x="1900.00" y="600.00" />
    <node avg_slowdown_ratio="0.249340052796" id="node_11x13" type="right_before_left" weight_num="3.0" weight_sum="0.748020158387" x="1100.00" y="1300.00" />
    <node avg_slowdown_ratio="0.249100071994" id="node_02x08" type="right_before_left" weight_num="4.0" weight_sum="0.996400287977" x="200.00" y="800.00" />
    <node avg_slowdown_ratio="0.249100071994" id="node_04x14" type="right_before_left" weight_num="2.0" weight_sum="0.498200143989" x="400.00" y="1400.00" />
    <node avg_slowdown_ratio="0.249100071994" id="node_12x14" type="right_before_left" weight_num="2.0" weight_sum="0.498200143988" x="1200.00" y="1400.00" />
    <node avg_slowdown_ratio="0.248860091193" id="node_08x03" type="right_before_left" weight_num="3.0" weight_sum="0.746580273578" x="800.00" y="300.00" />
    <node avg_slowdown_ratio="0.248740100792" id="node_03x06" type="right_before_left" weight_num="2.0" weight_sum="0.497480201584" x="300.00" y="600.00" />
    <node avg_slowdown_ratio="0.248740100792" id="node_06x19" type="right_before_left" weight_num="4.0" weight_sum="0.994960403167" x="600.00" y="1900.00" />
    <node avg_slowdown_ratio="0.248740100792" id="node_20x06" type="right_before_left" weight_num="2.0" weight_sum="0.497480201584" x="2000.00" y="600.00" />