<?xml version='1.0' encoding='UTF-8'?>
<edges xmlns:xsi="http://www.w3.org/2001/XMLSchema-instance" version="0.27" xsi:noNamespaceSchemaLocation="http://sumo.dlr.de/xsd/edges_file.xsd"><edge disallow="tram rail_urban rail rail_electric ship" dump_speed="0.49" from="node_05x09" id="yedge_09x10" len="100.0" numLanes="1" priority="5" slowdown="13.4" slowdown_ratio="0.964722822174" speed="13.89" to="node_06x09" type="highway.undefined" />
    <edge disallow="tram rail_urban rail rail_electric ship" dump_speed="0.73" from="node_05x10" id="xedge_05x19" len="100.0" numLanes="1" priority="5" slowdown="13.16" slowdown_ratio="0.947444204464" speed="13.89" to="node_05x09" type="highway.undefined" />
    <edge disallow="tram rail_urban rail rail_electric ship" dump_speed="1.46" from="node_04x10" id="yedge_10x08" len="100.0" numLanes="1" priority="5" slowdown="12.43" slowdown_ratio="0.894888408927" speed="13.89" to="node_05x10" type="highway.undefined" />
    <edge disallow="tram rail_urban rail rail_electric ship" dump_speed="1.76" from="node_07x11" id="xedge_07x21" len="100.0" numLanes="1" priority="5" slowdown="12.13" slowdown_ratio="0.873290136789" speed="13.89" to="node_07x10" type="highway.undefined" />
    <edge disallow="tram rail_urban rail rail_electric ship" dump_speed="1.95" from="node_04x11" id="xedge_04x21" len="100.0" numLanes="1" priority="5" slowdown="11.94" slowdown_ratio="0.859611231102" speed="13.89" to="node_04x10" type="highway.undefined" />
    <edge disallow="tram rail_urban rail rail_electric ship" dump_speed="2.45" from="node_05x08" id="yedge_08x10" len="100.0" numLanes="1" priority="5" slowdown="11.44" slowdown_ratio="0.823614110871" speed="13.89" to="node_06x08" type="highway.undefined" />
    <edge disallow="tram rail_urban rail rail_electric ship" dump_speed="2.53" from="node_06x10" id="yedge_10x12" len="100.0" numLanes="1" priority="5" slowdown="11.36" slowdown_ratio="0.817854571634" speed="13.89" to="node_07x10" type="highway.undefined" />
    <edge disallow="tram rail_urban rail rail_electric ship" dump_speed="2.76" from="node_03x10" id="yedge_10x06" len="100.0" numLanes="1" priority="5" slowdown="11.13" slowdown_ratio="0.801295896328" speed="13.89" to="node_04x10" type="highway.undefined" />
    <edge disallow="tram rail_urban rail rail_electric ship" dump_speed="2.98" from="node_06x09" id="xedge_06x18" len="100.0" numLanes="1" priority="5" slowdown="10.91" slowdown_ratio="0.785457163427" speed="13.89" to="node_06x10" type="highway.undefined" />
    <edge disallow="tram rail_urban rail rail_electric ship" dump_speed="3.62" from="node_08x08" id="yedge_08x16" len="100.0" numLanes="1" priority="5" slowdown="10.27" slowdown_ratio="0.739380849532" speed="13.89" to="node_09x08" type="highway.undefined" />
    <edge disallow="tram rail_urban rail rail_electric ship" dump_speed="4.15" from="node_07x10" id="yedge_10x13" len="100.0" numLanes="1" priority="5" slowdown="9.74" slowdown_ratio="0.701223902088" speed="13.89" to="node_06x10" type="highway.undefined" />
    <edge disallow="tram rail_urban rail rail_electric ship" dump_speed="4.33" from="node_08x10" id="yedge_10x15" len="100.0" numLanes="1" priority="5" slowdown="9.56" slowdown_ratio="0.688264938805" speed="13.89" to="node_07x10" type="highway.undefined" />
    <edge disallow="tram rail_urban rail rail_electric ship" dump_speed="4.67" from="node_06x07" id="xedge_06x13" len="100.0" numLanes="1" priority="5" slowdown="9.22" slowdown_ratio="0.663786897048" speed="13.89" to="node_06x06" type="highway.undefined" />
    <edge disallow="tram rail_urban rail rail_electric ship" dump_speed="4.82" from="node_09x08" id="yedge_08x18" len="100.0" numLanes="1" priority="5" slowdown="9.07" slowdown_ratio="0.652987760979" speed="13.89" to="node_10x08" type="highway.undefined" />
    <edge disallow="tram rail_urban rail rail_electric ship" dump_speed="5.16" from="node_06x08" id="xedge_06x16" len="100.0" numLanes="1" priority="5" slowdown="8.73" slowdown_ratio="0.628509719222" speed="13.89" to="node_06x09" type="highway.undefined" />
    <edge disallow="tram rail_urban rail rail_electric ship" dump_speed="5.35" from="node_05x08" id="xedge_05x16" len="100.0" numLanes="1" priority="5" slowdown="8.54" slowdown_ratio="0.614830813535" speed="13.89" to="node_05x09" type="highway.undefined" />
    <edge disallow="tram rail_urban rail rail_electric ship" dump_speed="5.59" from="node_05x06" id="yedge_06x10" len="100.0" numLanes="1" priority="5" slowdown="8.3" slowdown_ratio="0.597552195824" speed="13.89" to="node_06x06" type="highway.undefined" />
    <edge disallow="tram rail_urban rail rail_electric ship" dump_speed="5.91" from="node_06x10" id="xedge_06x19" len="100.0" numLanes="1" priority="5" slowdown="7.98" slowdown_ratio="0.574514038877" speed="13.89" to="node_06x09" type="highway.undefined" />
    <edge disallow="tram rail_urban rail rail_electric ship" dump_speed="5.95" from="node_08x09" id="xedge_08x18" len="100.0" numLanes="1" priority="5" slowdown="7.94" slowdown_ratio="0.571634269258" speed="13.89" to="node_08x10" type="highway.undefined" />
    <edge disallow="tram rail_urban rail rail_electric ship" dump_speed="5.96" from="node_05x11" id="xedge_05x21" len="100.0" numLanes="1" priority="5" slowdown="7.93" slowdown_ratio="0.570914326854" speed="13.89" to="node_05x10" type="highway.undefined" />
    <edge disallow="tram rail_urban rail rail_electric ship" dump_speed="5.96" from="node_08x14" id="yedge_14x16" len="100.0" numLanes="1" priority="5" slowdown="7.93" slowdown_ratio="0.570914326854" speed="13.89" to="node_09x14" type="highway.undefined" />
    <edge disallow="tram rail_urban rail rail_electric ship" dump_speed="6.42" from="node_07x12" id="xedge_07x23" len="100.0" numLanes="1" priority="5" slowdown="7.47" slowdown_ratio="0.537796976242" speed="13.89" to="node_07x11" type="highway.undefined" />
    <edge disallow="tram rail_urban rail rail_electric ship" dump_speed="6.46" from="node_06x09" id="xedge_06x17" len="100.0" numLanes="1" priority="5" slowdown="7.43" slowdown_ratio="0.534917206623" speed="13.89" to="node_06x08" type="highway.undefined" />
    <edge disallow="tram rail_urban rail rail_electric ship" dump_speed="6.73" from="node_07x03" id="xedge_07x06" len="100.0" numLanes="1" priority="5" slowdown="7.16" slowdown_ratio="0.515478761699" speed="13.89" to="node_07x04" type="highway.undefined" />
    <edge disallow="tram rail_urban rail rail_electric ship" dump_speed="6.73" from="node_05x07" id="yedge_07x10" len="100.0" numLanes="1" priority="5" slowdown="7.16" slowdown_ratio="0.515478761699" speed="13.89" to="node_06x07" type="highway.undefined" />
    <edge disallow="tram rail_urban rail rail_electric ship" dump_speed="6.77" from="node_05x05" id="yedge_05x10" len="100.0" numLanes="1" priority="5" slowdown="7.12" slowdown_ratio="0.512598992081" speed="13.89" to="node_06x05" type="highway.undefined" />
    <edge disallow="tram rail_urban rail rail_electric ship" dump_speed="6.92" from="node_09x15" id="xedge_09x29" len="100.0" numLanes="1" priority="5" slowdown="6.97" slowdown_ratio="0.501799856012" speed="13.89" to="node_09x14" type="highway.undefined" />
    <edge disallow="tram rail_urban rail rail_electric ship" dump_speed="7.13" from="node_16x06" id="yedge_06x31" len="100.0" numLanes="1" priority="5" slowdown="6.76" slowdown_ratio="0.486681065515" speed="13.89" to="node_15x06" type="highway.undefined" />
    <edge disallow="tram rail_urban rail rail_electric ship" dump_speed="7.35" from="node_09x10" id="yedge_10x17" len="100.0" numLanes="1" priority="5" slowdown="6.54" slowdown_ratio="0.470842332613" speed="13.89" to="node_08x10" type="highway.undefined" />
    <edge disallow="tram rail_urban rail rail_electric ship" dump_speed="7.37" from="node_10x07" id="xedge_10x14" len="100.0" numLanes="1" priority="5" slowdown="6.52" slowdown_ratio="0.469402447804" speed="13.89" to="node_10x08" type="highway.undefined" />
    <edge disallow="tram rail_urban rail rail_electric ship" dump_speed="7.38" from="node_06x11" id="yedge_11x12" len="100.0" numLanes="1" priority="5" slowdown="6.51" slowdown_ratio="0.4686825054" speed="13.89" to="node_07x11" type="highway.undefined" />
    <edge disallow="tram rail_urban rail rail_electric ship" dump_speed="7.42" from="node_07x11" id="yedge_11x13" len="100.0" numLanes="1" priority="5" slowdown="6.47" slowdown_ratio="0.465802735781" speed="13.89" to="node_06x11" type="highway.undefined" />
    <edge disallow="tram rail_urban rail rail_electric ship" dump_speed="7.43" from="node_09x13" id="yedge_13x17" len="100.0" numLanes="1" priority="5" slowdown="6.46" slowdown_ratio="0.465082793377" speed="13.89" to="node_08x13" type="highway.undefined" />
    <edge disallow="tram rail_urban rail rail_electric ship" dump_speed="7.47" from="node_06x07" id="xedge_06x14" len="100.0" numLanes="1" priority="5" slowdown="6.42" slowdown_ratio="0.462203023758" speed="13.89" to="node_06x08" type="highway.undefined" />
    <edge disallow="tram rail_urban rail rail_electric ship" dump_speed="7.59" from="node_05x11" id="yedge_11x09" len="100.0" numLanes="1" priority="5" slowdown="6.3" slowdown_ratio="0.453563714903" speed="13.89" to="node_04x11" type="highway.undefined" />
    <edge disallow="tram rail_urban rail rail_electric ship" dump_speed="7.67" from="node_05x04" id="yedge_04x10" len="100.0" numLanes="1" priority="5" slowdown="6.22" slowdown_ratio="0.447804175666" speed="13.89" to="node_06x04" type="highway.undefined" />
    <edge disallow="tram rail_urban rail rail_electric ship" dump_speed="7.68" from="node_07x09" id="xedge_07x18" len="100.0" numLanes="1" priority="5" slowdown="6.21" slowdown_ratio="0.447084233261" speed="13.89" to="node_07x10" type="highway.undefined" />
    <edge disallow="tram rail_urban rail rail_electric ship" dump_speed="7.7" from="node_07x13" id="xedge_07x25" len="100.0" numLanes="1" priority="5" slowdown="6.19" slowdown_ratio="0.445644348452" speed="13.89" to="node_07x12" type="highway.undefined" />
    <edge disallow="tram rail_urban rail rail_electric ship" dump_speed="7.89" from="node_08x11" id="xedge_08x22" len="100.0" numLanes="1" priority="5" slowdown="6.0" slowdown_ratio="0.431965442765" speed="13.89" to="node_08x12" type="highway.undefined" />
    <edge disallow="tram rail_urban rail rail_electric ship" dump_speed="7.98" from="node_09x06" id="yedge_06x18" len="100.0" numLanes="1" priority="5" slowdown="5.91" slowdown_ratio="0.425485961123" speed="13.89" to="node_10x06" type="highway.undefined" />
    <edge disallow="tram rail_urban rail rail_electric ship" dump_speed="8.01" from="node_11x11" id="xedge_11x22" len="100.0" numLanes="1" priority="5" slowdown="5.88" slowdown_ratio="0.423326133909" speed="13.89" to="node_11x12" type="highway.undefined" />
    <edge disallow="tram rail_urban rail rail_electric ship" dump_speed="8.02" from="node_04x09" id="xedge_04x18" len="100.0" numLanes="1" priority="5" slowdown="5.87" slowdown_ratio="0.422606191505" speed="13.89" to="node_04x10" type="highway.undefined" />
    <edge disallow="tram rail_urban rail rail_electric ship" dump_speed="8.02" from="node_14x18" id="xedge_14x35" len="100.0" numLanes="1" priority="5" slowdown="5.87" slowdown_ratio="0.422606191505" speed="13.89" to="node_14x17" type="highway.undefined" />
    <edge disallow="tram rail_urban rail rail_electric ship" dump_speed="8.1" from="node_05x09" id="xedge_05x18" len="100.0" numLanes="1" priority="5" slowdown="5.79" slowdown_ratio="0.416846652268" speed="13.89" to="node_05x10" type="highway.undefined" />
    <edge disallow="tram rail_urban rail rail_electric ship" dump_speed="8.13" from="node_06x10" id="xedge_06x20" len="100.0" numLanes="1" priority="5" slowdown="5.76" slowdown_ratio="0.414686825054" speed="13.89" to="node_06x11" type="highway.undefined" />
    <edge disallow="tram rail_urban rail rail_electric ship" dump_speed="8.13" from="node_06x11" id="xedge_06x21" len="100.0" numLanes="1" priority="5" slowdown="5.76" slowdown_ratio="0.414686825054" speed="13.89" to="node_06x10" type="highway.undefined" />
    <edge disallow="tram rail_urban rail rail_electric ship" dump_speed="8.15" from="node_08x04" id="yedge_04x16" len="100.0" numLanes="1" priority="5" slowdown="5.74" slowdown_ratio="0.413246940245" speed="13.89" to="node_09x04" type="highway.undefined" />
    <edge disallow="tram rail_urban rail rail_electric ship" dump_speed="8.2" from="node_03x11" id="xedge_03x21" len="100.0" numLanes="1" priority="5" slowdown="5.69" slowdown_ratio="0.409647228222" speed="13.89" to="node_03x10" type="highway.undefined" />
    <edge disallow="tram rail_urban rail rail_electric ship" dump_speed="8.25" from="node_08x06" id="yedge_06x16" len="100.0" numLanes="1" priority="5" slowdown="5.64" slowdown_ratio="0.406047516199" speed="13.89" to="node_09x06" type="highway.undefined" />
    <edge disallow="tram rail_urban rail rail_electric ship" dump_speed="8.27" from="node_09x05" id="yedge_05x18" len="100.0" numLanes="1" priority="5" slowdown="5.62" slowdown_ratio="0.404607631389" speed="13.89" to="node_10x05" type="highway.undefined" />
    <edge disallow="tram rail_urban rail rail_electric ship" dump_speed="8.29" from="node_10x10" id="yedge_10x19" len="100.0" numLanes="1" priority="5" slowdown="5.6" slowdown_ratio="0.40316774658" speed="13.89" to="node_09x10" type="highway.undefined" />
    <edge disallow="tram rail_urban rail rail_electric ship" dump_speed="8.31" from="node_17x03" id="xedge_17x06" len="100.0" numLanes="1" priority="5" slowdown="5.58" slowdown_ratio="0.401727861771" speed="13.89" to="node_17x04" type="highway.undefined" />
    <edge disallow="tram rail_urban rail rail_electric ship" dump_speed="8.31" from="node_12x08" id="yedge_08x24" len="100.0" numLanes="1" priority="5" slowdown="5.58" slowdown_ratio="0.401727861771" speed="13.89" to="node_13x08" type="highway.undefined" />
    <edge disallow="tram rail_urban rail rail_electric ship" dump_speed="8.33" from="node_15x04" id="xedge_15x08" len="100.0" numLanes="1" priority="5" slowdown="5.56" slowdown_ratio="0.400287976962" speed="13.89" to="node_15x05" type="highway.undefined" />
    <edge disallow="tram rail_urban rail rail_electric ship" dump_speed="8.36" from="node_10x01" id="yedge_01x19" len="100.0" numLanes="1" priority="5" slowdown="5.53" slowdown_ratio="0.398128149748" speed="13.89" to="node_09x01" type="highway.undefined" />
    <edge disallow="tram rail_urban rail rail_electric ship" dump_speed="8.36" from="node_09x07" id="yedge_07x18" len="100.0" numLanes="1" priority="5" slowdown="5.53" slowdown_ratio="0.398128149748" speed="13.89" to="node_10x07" type="highway.undefined" />
    <edge disallow="tram rail_urban rail rail_electric ship" dump_speed="8.36" from="node_12x11" id="yedge_11x24" len="100.0" numLanes="1" priority="5" slowdown="5.53" slowdown_ratio="0.398128149748" speed="13.89" to="node_13x11" type="highway.undefined" />
    <edge disallow="tram rail_urban rail rail_electric ship" dump_speed="8.41" from="node_13x14" id="yedge_14x26" len="100.0" numLanes="1" priority="5" slowdown="5.48" slowdown_ratio="0.394528437725" speed="13.89" to="node_14x14" type="highway.undefined" />
    <edge disallow="tram rail_urban rail rail_electric ship" dump_speed="8.42" from="node_11x01" id="xedge_11x02" len="100.0" numLanes="1" priority="5" slowdown="5.47" slowdown_ratio="0.39380849532" speed="13.89" to="node_11x02" type="highway.undefined" />
    <edge disallow="tram rail_urban rail rail_electric ship" dump_speed="8.43" from="node_10x02" id="yedge_02x19" len="100.0" numLanes="1" priority="5" slowdown="5.46" slowdown_ratio="0.393088552916" speed="13.89" to="node_09x02" type="highway.undefined" />
    <edge disallow="tram rail_urban rail rail_electric ship" dump_speed="8.44" from="node_03x20" id="xedge_03x39" len="100.0" numLanes="1" priority="5" slowdown="5.45" slowdown_ratio="0.392368610511" speed="13.89" to="node_03x19" type="highway.undefined" />
    <edge disallow="tram rail_urban rail rail_electric ship" dump_speed="8.45" from="node_03x13" id="xedge_03x26" len="100.0" numLanes="1" priority="5" slowdown="5.44" slowdown_ratio="0.391648668107" speed="13.89" to="node_03x14" type="highway.undefined" />
    <edge disallow="tram rail_urban rail rail_electric ship" dump_speed="8.47" from="node_18x14" id="xedge_18x28" len="100.0" numLanes="1" priority="5" slowdown="5.42" slowdown_ratio="0.390208783297" speed="13.89" to="node_18x15" type="highway.undefined" />
    <edge disallow="tram rail_urban rail rail_electric ship" dump_speed="8.47" from="node_14x03" id="yedge_03x28" len="100.0" numLanes="1" priority="5" slowdown="5.42" slowdown_ratio="0.390208783297" speed="13.89" to="node_15x03" type="highway.undefined" />
    <edge disallow="tram rail_urban rail rail_electric ship" dump_speed="8.49" from="node_10x03" id="xedge_10x06" len="100.0" numLanes="1" priority="5" slowdown="5.4" slowdown_ratio="0.388768898488" speed="13.89" to="node_10x04" type="highway.undefined" />
    <edge disallow="tram rail_urban rail rail_electric ship" dump_speed="8.52" from="node_18x20" id="yedge_20x35" len="100.0" numLanes="1" priority="5" slowdown="5.37" slowdown_ratio="0.386609071274" speed="13.89" to="node_17x20" type="highway.undefined" />
<edge disallow="tram rail_urban rail rail_electric ship" dump_speed="8.55" from="node_03x12" id="yedge_12x05" len="100.0" numLanes="1" priority="5" slowdown="5.34" slowdown_ratio="0.38444924406" speed="13.89" to="node_02x12" type="highway.undefined" />
    <edge disallow="tram rail_urban rail rail_electric ship" dump_speed="8.56" from="node_13x17" id="yedge_17x25" len="100.0" numLanes="1" priority="5" slowdown="5.33" slowdown_ratio="0.383729301656" speed="13.89" to="node_12x17" type="highway.undefined" />
    <edge disallow="tram rail_urban rail rail_electric ship" dump_speed="8.58" from="node_08x05" id="yedge_05x15" len="100.0" numLanes="1" priority="5" slowdown="5.31" slowdown_ratio="0.382289416847" speed="13.89" to="node_07x05" type="highway.undefined" />
    <edge disallow="tram rail_urban rail rail_electric ship" dump_speed="8.59" from="node_04x20" id="xedge_04x39" len="100.0" numLanes="1" priority="5" slowdown="5.3" slowdown_ratio="0.381569474442" speed="13.89" to="node_04x19" type="highway.undefined" />
    <edge disallow="tram rail_urban rail rail_electric ship" dump_speed="8.62" from="node_19x17" id="yedge_17x37" len="100.0" numLanes="1" priority="5" slowdown="5.27" slowdown_ratio="0.379409647228" speed="13.89" to="node_18x17" type="highway.undefined" />
    <edge disallow="tram rail_urban rail rail_electric ship" dump_speed="8.64" from="node_09x15" id="yedge_15x17" len="100.0" numLanes="1" priority="5" slowdown="5.25" slowdown_ratio="0.377969762419" speed="13.89" to="node_08x15" type="highway.undefined" />
    <edge disallow="tram rail_urban rail rail_electric ship" dump_speed="8.7" from="node_16x16" id="xedge_16x32" len="100.0" numLanes="1" priority="5" slowdown="5.19" slowdown_ratio="0.373650107991" speed="13.89" to="node_16x17" type="highway.undefined" />
    <edge disallow="tram rail_urban rail rail_electric ship" dump_speed="8.73" from="node_14x15" id="xedge_14x29" len="100.0" numLanes="1" priority="5" slowdown="5.16" slowdown_ratio="0.371490280778" speed="13.89" to="node_14x14" type="highway.undefined" />
    <edge disallow="tram rail_urban rail rail_electric ship" dump_speed="8.76" from="node_20x11" id="xedge_20x21" len="100.0" numLanes="1" priority="5" slowdown="5.13" slowdown_ratio="0.369330453564" speed="13.89" to="node_20x10" type="highway.undefined" />
    <edge disallow="tram rail_urban rail rail_electric ship" dump_speed="8.76" from="node_07x08" id="yedge_08x13" len="100.0" numLanes="1" priority="5" slowdown="5.13" slowdown_ratio="0.369330453564" speed="13.89" to="node_06x08" type="highway.undefined" />
    <edge disallow="tram rail_urban rail rail_electric ship" dump_speed="8.78" from="node_15x11" id="yedge_11x29" len="100.0" numLanes="1" priority="5" slowdown="5.11" slowdown_ratio="0.367890568754" speed="13.89" to="node_14x11" type="highway.undefined" />
    <edge disallow="tram rail_urban rail rail_electric ship" dump_speed="8.8" from="node_18x05" id="xedge_18x10" len="100.0" numLanes="1" priority="5" slowdown="5.09" slowdown_ratio="0.366450683945" speed="13.89" to="node_18x06" type="highway.undefined" />
    <edge disallow="tram rail_urban rail rail_electric ship" dump_speed="8.89" from="node_12x05" id="yedge_05x23" len="100.0" numLanes="1" priority="5" slowdown="5.0" slowdown_ratio="0.359971202304" speed="13.89" to="node_11x05" type="highway.undefined" />
    <edge disallow="tram rail_urban rail rail_electric ship" dump_speed="8.9" from="node_08x11" id="yedge_11x15" len="100.0" numLanes="1" priority="5" slowdown="4.99" slowdown_ratio="0.359251259899" speed="13.89" to="node_07x11" type="highway.undefined" />
    <edge disallow="tram rail_urban rail rail_electric ship" dump_speed="8.91" from="node_15x10" id="xedge_15x20" len="100.0" numLanes="1" priority="5" slowdown="4.98" slowdown_ratio="0.358531317495" speed="13.89" to="node_15x11" type="highway.undefined" />
    <edge disallow="tram rail_urban rail rail_electric ship" dump_speed="8.91" from="node_08x15" id="yedge_15x16" len="100.0" numLanes="1" priority="5" slowdown="4.98" slowdown_ratio="0.358531317495" speed="13.89" to="node_09x15" type="highway.undefined" />
    <edge disallow="tram rail_urban rail rail_electric ship" dump_speed="8.92" from="node_15x06" id="xedge_15x11" len="100.0" numLanes="1" priority="5" slowdown="4.97" slowdown_ratio="0.35781137509" speed="13.89" to="node_15x05" type="highway.undefined" />
    <edge disallow="tram rail_urban rail rail_electric ship" dump_speed="8.93" from="node_05x13" id="xedge_05x26" len="100.0" numLanes="1" priority="5" slowdown="4.96" slowdown_ratio="0.357091432685" speed="13.89" to="node_05x14" type="highway.undefined" />
    <edge disallow="tram rail_urban rail rail_electric ship" dump_speed="8.95" from="node_06x03" id="yedge_03x12" len="100.0" numLanes="1" priority="5" slowdown="4.94" slowdown_ratio="0.355651547876" speed="13.89" to="node_07x03" type="highway.undefined" />
    <edge disallow="tram rail_urban rail rail_electric ship" dump_speed="8.96" from="node_11x04" id="xedge_11x08" len="100.0" numLanes="1" priority="5" slowdown="4.93" slowdown_ratio="0.354931605472" speed="13.89" to="node_11x05" type="highway.undefined" />
    <edge disallow="tram rail_urban rail rail_electric ship" dump_speed="9.06" from="node_09x09" id="xedge_09x17" len="100.0" numLanes="1" priority="5" slowdown="4.83" slowdown_ratio="0.347732181425" speed="13.89" to="node_09x08" type="highway.undefined" />
    <edge disallow="tram rail_urban rail rail_electric ship" dump_speed="9.13" from="node_12x04" id="xedge_12x08" len="100.0" numLanes="1" priority="5" slowdown="4.76" slowdown_ratio="0.342692584593" speed="13.89" to="node_12x05" type="highway.undefined" />
    <edge disallow="tram rail_urban rail rail_electric ship" dump_speed="9.14" from="node_17x19" id="xedge_17x38" len="100.0" numLanes="1" priority="5" slowdown="4.75" slowdown_ratio="0.341972642189" speed="13.89" to="node_17x20" type="highway.undefined" />
    <edge disallow="tram rail_urban rail rail_electric ship" dump_speed="9.16" from="node_04x15" id="yedge_15x08" len="100.0" numLanes="1" priority="5" slowdown="4.73" slowdown_ratio="0.340532757379" speed="13.89" to="node_05x15" type="highway.undefined" />
    <edge disallow="tram rail_urban rail rail_electric ship" dump_speed="9.17" from="node_09x14" id="xedge_09x28" len="100.0" numLanes="1" priority="5" slowdown="4.72" slowdown_ratio="0.339812814975" speed="13.89" to="node_09x15" type="highway.undefined" />
    <edge disallow="tram rail_urban rail rail_electric ship" dump_speed="9.2" from="node_06x08" id="xedge_06x15" len="100.0" numLanes="1" priority="5" slowdown="4.69" slowdown_ratio="0.337652987761" speed="13.89" to="node_06x07" type="highway.undefined" />
    <edge disallow="tram rail_urban rail rail_electric ship" dump_speed="9.22" from="node_00x04" id="xedge_00x07" len="100.0" numLanes="1" priority="5" slowdown="4.67" slowdown_ratio="0.336213102952" speed="13.89" to="node_00x03" type="highway.undefined" />
    <edge disallow="tram rail_urban rail rail_electric ship" dump_speed="9.22" from="node_10x04" id="xedge_10x08" len="100.0" numLanes="1" priority="5" slowdown="4.67" slowdown_ratio="0.336213102952" speed="13.89" to="node_10x05" type="highway.undefined" />
    <edge disallow="tram rail_urban rail rail_electric ship" dump_speed="9.22" from="node_15x16" id="xedge_15x32" len="100.0" numLanes="1" priority="5" slowdown="4.67" slowdown_ratio="0.336213102952" speed="13.89" to="node_15x17" type="highway.undefined" />
    <edge disallow="tram rail_urban rail rail_electric ship" dump_speed="9.22" from="node_10x15" id="yedge_15x19" len="100.0" numLanes="1" priority="5" slowdown="4.67" slowdown_ratio="0.336213102952" speed="13.89" to="node_09x15" type="highway.undefined" />
    <edge disallow="tram rail_urban rail rail_electric ship" dump_speed="9.23" from="node_03x09" id="xedge_03x18" len="100.0" numLanes="1" priority="5" slowdown="4.66" slowdown_ratio="0.335493160547" speed="13.89" to="node_03x10" type="highway.undefined" />
    <edge disallow="tram rail_urban rail rail_electric ship" dump_speed="9.25" from="node_10x12" id="xedge_10x24" len="100.0" numLanes="1" priority="5" slowdown="4.64" slowdown_ratio="0.334053275738" speed="13.89" to="node_10x13" type="highway.undefined" />
    <edge disallow="tram rail_urban rail rail_electric ship" dump_speed="9.26" from="node_04x09" id="xedge_04x17" len="100.0" numLanes="1" priority="5" slowdown="4.63" slowdown_ratio="0.333333333333" speed="13.89" to="node_04x08" type="highway.undefined" />
    <edge disallow="tram rail_urban rail rail_electric ship" dump_speed="9.28" from="node_08x14" id="xedge_08x28" len="100.0" numLanes="1" priority="5" slowdown="4.61" slowdown_ratio="0.331893448524" speed="13.89" to="node_08x15" type="highway.undefined" />
    <edge disallow="tram rail_urban rail rail_electric ship" dump_speed="9.32" from="node_13x10" id="xedge_13x19" len="100.0" numLanes="1" priority="5" slowdown="4.57" slowdown_ratio="0.329013678906" speed="13.89" to="node_13x09" type="highway.undefined" />
    <edge disallow="tram rail_urban rail rail_electric ship" dump_speed="9.32" from="node_19x03" id="yedge_03x37" len="100.0" numLanes="1" priority="5" slowdown="4.57" slowdown_ratio="0.329013678906" speed="13.89" to="node_18x03" type="highway.undefined" />
    <edge disallow="tram rail_urban rail rail_electric ship" dump_speed="9.34" from="node_12x15" id="yedge_15x23" len="100.0" numLanes="1" priority="5" slowdown="4.55" slowdown_ratio="0.327573794096" speed="13.89" to="node_11x15" type="highway.undefined" />
    <edge disallow="tram rail_urban rail rail_electric ship" dump_speed="9.38" from="node_11x20" id="xedge_11x39" len="100.0" numLanes="1" priority="5" slowdown="4.51" slowdown_ratio="0.324694024478" speed="13.89" to="node_11x19" type="highway.undefined" />
    <edge disallow="tram rail_urban rail rail_electric ship" dump_speed="9.39" from="node_04x18" id="xedge_04x36" len="100.0" numLanes="1" priority="5" slowdown="4.5" slowdown_ratio="0.323974082073" speed="13.89" to="node_04x19" type="highway.undefined" />
    <edge disallow="tram rail_urban rail rail_electric ship" dump_speed="9.4" from="node_13x08" id="yedge_08x26" len="100.0" numLanes="1" priority="5" slowdown="4.49" slowdown_ratio="0.323254139669" speed="13.89" to="node_14x08" type="highway.undefined" />
    <edge disallow="tram rail_urban rail rail_electric ship" dump_speed="9.41" from="node_10x14" id="yedge_14x19" len="100.0" numLanes="1" priority="5" slowdown="4.48" slowdown_ratio="0.322534197264" speed="13.89" to="node_09x14" type="highway.undefined" />
    <edge disallow="tram rail_urban rail rail_electric ship" dump_speed="9.42" from="node_13x18" id="xedge_13x35" len="100.0" numLanes="1" priority="5" slowdown="4.47" slowdown_ratio="0.32181425486" speed="13.89" to="node_13x17" type="highway.undefined" />
    <edge disallow="tram rail_urban rail rail_electric ship" dump_speed="9.43" from="node_12x16" id="xedge_12x32" len="100.0" numLanes="1" priority="5" slowdown="4.46" slowdown_ratio="0.321094312455" speed="13.89" to="node_12x17" type="highway.undefined" />
    <edge disallow="tram rail_urban rail rail_electric ship" dump_speed="9.43" from="node_14x12" id="xedge_14x23" len="100.0" numLanes="1" priority="5" slowdown="4.46" slowdown_ratio="0.321094312455" speed="13.89" to="node_14x11" type="highway.undefined" />
    <edge disallow="tram rail_urban rail rail_electric ship" dump_speed="9.43" from="node_15x10" id="yedge_10x29" len="100.0" numLanes="1" priority="5" slowdown="4.46" slowdown_ratio="0.321094312455" speed="13.89" to="node_14x10" type="highway.undefined" />
    <edge disallow="tram rail_urban rail rail_electric ship" dump_speed="9.46" from="node_16x05" id="yedge_05x31" len="100.0" numLanes="1" priority="5" slowdown="4.43" slowdown_ratio="0.318934485241" speed="13.89" to="node_15x05" type="highway.undefined" />
    <edge disallow="tram rail_urban rail rail_electric ship" dump_speed="9.47" from="node_20x14" id="yedge_14x39" len="100.0" numLanes="1" priority="5" slowdown="4.42" slowdown_ratio="0.318214542837" speed="13.89" to="node_19x14" type="highway.undefined" />
    <edge disallow="tram rail_urban rail rail_electric ship" dump_speed="9.49" from="node_13x09" id="yedge_09x26" len="100.0" numLanes="1" priority="5" slowdown="4.4" slowdown_ratio="0.316774658027" speed="13.89" to="node_14x09" type="highway.undefined" />
    <edge disallow="tram rail_urban rail rail_electric ship" dump_speed="9.51" from="node_02x20" id="xedge_02x39" len="100.0" numLanes="1" priority="5" slowdown="4.38" slowdown_ratio="0.315334773218" speed="13.89" to="node_02x19" type="highway.undefined" />