<?xml version='1.0' encoding='UTF-8'?>
<nodes xmlns:xsi="http://www.w3.org/2001/XMLSchema-instance" version="0.27" xsi:noNamespaceSchemaLocation="http://sumo.dlr.de/xsd/edges_file.xsd"><node avg_slowdown_ratio="0.71382289417" id="node_12x10" junction="True" old_x="1200.0" old_y="1000.0" type="right_before_left" weight_num="4.0" weight_sum="2.85529157668" x="7433.81233824" x_displacement_sum="6233.81233824" y="-24.86192038" y_displacement_sum="-1024.86192038" />
    <node avg_slowdown_ratio="0.711663066955" id="node_12x11" junction="True" old_x="1200.0" old_y="1100.0" type="right_before_left" weight_num="4.0" weight_sum="2.84665226782" x="7634.94080238" x_displacement_sum="6434.94080238" y="5117.57529521" y_displacement_sum="4017.57529521" />
    <node avg_slowdown_ratio="0.710043196545" id="node_10x08" junction="True" old_x="1000.0" old_y="800.0" type="right_before_left" weight_num="4.0" weight_sum="2.84017278618" x="744.657264751" x_displacement_sum="-255.342735249" y="-4652.91188779" y_displacement_sum="-5452.91188779" />
    <node avg_slowdown_ratio="0.674046076315" id="node_11x11" junction="True" old_x="1100.0" old_y="1100.0" type="right_before_left" weight_num="4.0" weight_sum="2.69618430526" x="2293.25278317" x_displacement_sum="1193.25278317" y="4648.1082668" y_displacement_sum="3548.1082668" />
    <node avg_slowdown_ratio="0.65172786177" id="node_10x07" junction="True" old_x="1000.0" old_y="700.0" type="right_before_left" weight_num="4.0" weight_sum="2.60691144708" x="1075.06651956" x_displacement_sum="75.0665195569" y="-9521.7043805" y_displacement_sum="-10221.7043805" />
    <node avg_slowdown_ratio="0.649028077753" id="node_10x09" junction="True" old_x="1000.0" old_y="900.0" type="right_before_left" weight_num="4.0" weight_sum="2.59611231101" x="-220.41172592" x_displacement_sum="-1220.41172592" y="-934.84316871" y_displacement_sum="-1834.84316871" />
    <node avg_slowdown_ratio="0.645968322535" id="node_11x10" junction="True" old_x="1100.0" old_y="1000.0" type="right_before_left" weight_num="4.0" weight_sum="2.58387329014" x="2411.11593084" x_displacement_sum="1311.11593084" y="373.601661418" y_displacement_sum="-626.398338582" />
    <node avg_slowdown_ratio="0.641828653707" id="node_12x12" junction="True" old_x="1200.0" old_y="1200.0" type="right_before_left" weight_num="4.0" weight_sum="2.56731461483" x="7585.1165124" x_displacement_sum="6385.1165124" y="9469.66690003" y_displacement_sum="8269.66690003" />
    <node avg_slowdown_ratio="0.640568754497" id="node_11x12" junction="True" old_x="1100.0" old_y="1200.0" type="right_before_left" weight_num="4.0" weight_sum="2.56227501799" x="2937.25923131" x_displacement_sum="1837.25923131" y="9040.21810636" y_displacement_sum="7840.21810636" />
    <node avg_slowdown_ratio="0.638048956085" id="node_12x09" junction="True" old_x="1200.0" old_y="900.0" type="right_before_left" weight_num="4.0" weight_sum="2.55219582434" x="7725.67779074" x_displacement_sum="6525.67779074" y="-3637.28924587" y_displacement_sum="-4537.28924587" />
    <node avg_slowdown_ratio="0.632109431245" id="node_10x11" junction="True" old_x="1000.0" old_y="1100.0" type="right_before_left" weight_num="4.0" weight_sum="2.52843772498" x="-941.68079389" x_displacement_sum="-1941.68079389" y="4445.17690822" y_displacement_sum="3345.17690822" />
    <node avg_slowdown_ratio="0.628329733622" id="node_08x07" junction="True" old_x="800.0" old_y="700.0" type="right_before_left" weight_num="4.0" weight_sum="2.51331893449" x="-6482.947709" x_displacement_sum="-7282.947709" y="-9104.28470665" y_displacement_sum="-9804.28470665" />
    <node avg_slowdown_ratio="0.624730021598" id="node_10x10" junction="True" old_x="1000.0" old_y="1000.0" type="right_before_left" weight_num="4.0" weight_sum="2.49892008639" x="-825.29266983" x_displacement_sum="-1825.29266983" y="1231.03538688" y_displacement_sum="231.035386876" />
    <node avg_slowdown_ratio="0.621310295175" id="node_09x07" junction="True" old_x="900.0" old_y="700.0" type="right_before_left" weight_num="4.0" weight_sum="2.4852411807" x="-2947.22762007" x_displacement_sum="-3847.22762007" y="-9385.0282134" y_displacement_sum="-10085.0282134" />
    <node avg_slowdown_ratio="0.620230381567" id="node_09x08" junction="True" old_x="900.0" old_y="800.0" type="right_before_left" weight_num="4.0" weight_sum="2.48092152627" x="-3459.98998914" x_displacement_sum="-4359.98998914" y="-3989.75007163" y_displacement_sum="-4789.75007163" />
    <node avg_slowdown_ratio="0.613750899927" id="node_13x10" junction="True" old_x="1300.0" old_y="1000.0" type="right_before_left" weight_num="4.0" weight_sum="2.45500359971" x="11872.0125254" x_displacement_sum="10572.0125254" y="124.882483098" y_displacement_sum="-875.117516902" />
    <node avg_slowdown_ratio="0.613390928728" id="node_10x12" junction="True" old_x="1000.0" old_y="1200.0" type="right_before_left" weight_num="4.0" weight_sum="2.45356371491" x="-417.99505666" x_displacement_sum="-1417.99505666" y="8340.49580047" y_displacement_sum="7140.49580047" />
    <node avg_slowdown_ratio="0.613030957525" id="node_08x08" junction="True" old_x="800.0" old_y="800.0" type="right_before_left" weight_num="4.0" weight_sum="2.4521238301" x="-5747.67344835" x_displacement_sum="-6547.67344835" y="-4329.45731097" y_displacement_sum="-5129.45731097" />
    <node avg_slowdown_ratio="0.61069114471" id="node_11x08" junction="True" old_x="1100.0" old_y="800.0" type="right_before_left" weight_num="4.0" weight_sum="2.44276457884" x="5245.29862062" x_displacement_sum="4145.29862062" y="-5493.75328252" y_displacement_sum="-6293.75328252" />
    <node avg_slowdown_ratio="0.6094312455" id="node_11x09" junction="True" old_x="1100.0" old_y="900.0" type="right_before_left" weight_num="4.0" weight_sum="2.437724982" x="3788.45898645" x_displacement_sum="2688.45898645" y="-2474.06804243" y_displacement_sum="-3374.06804243" />
    <node avg_slowdown_ratio="0.60781137509" id="node_07x09" junction="True" old_x="700.0" old_y="900.0" type="right_before_left" weight_num="4.0" weight_sum="2.43124550036" x="-9027.14110858" x_displacement_sum="-9727.14110858" y="-1341.03913682" y_displacement_sum="-2241.03913682" />
    <node avg_slowdown_ratio="0.60637149028" id="node_07x08" junction="True" old_x="700.0" old_y="800.0" type="right_before_left" weight_num="4.0" weight_sum="2.42548596112" x="-9196.21889696" x_displacement_sum="-9896.21889696" y="-5335.49307226" y_displacement_sum="-6135.49307226" />
    <node avg_slowdown_ratio="0.60025197984" id="node_13x11" junction="True" old_x="1300.0" old_y="1100.0" type="right_before_left" weight_num="4.0" weight_sum="2.40100791936" x="11998.2523639" x_displacement_sum="10698.2523639" y="4933.68597767" y_displacement_sum="3833.68597767" />
    <node avg_slowdown_ratio="0.59521238301" id="node_09x11" junction="True" old_x="900.0" old_y="1100.0" type="right_before_left" weight_num="4.0" weight_sum="2.38084953204" x="-3107.35842439" x_displacement_sum="-4007.35842439" y="4129.74516856" y_displacement_sum="3029.74516856" />
    <node avg_slowdown_ratio="0.589632829375" id="node_09x12" junction="True" old_x="900.0" old_y="1200.0" type="right_before_left" weight_num="4.0" weight_sum="2.3585313175" x="-2657.64397273" x_displacement_sum="-3557.64397273" y="7713.85582073" y_displacement_sum="6513.85582073" />
    <node avg_slowdown_ratio="0.589452843772" id="node_08x09" junction="True" old_x="800.0" old_y="900.0" type="right_before_left" weight_num="4.0" weight_sum="2.35781137509" x="-5034.15838584" x_displacement_sum="-5834.15838584" y="-1022.6992079" y_displacement_sum="-1922.6992079" />
    <node avg_slowdown_ratio="0.58747300216" id="node_12x08" junction="True" old_x="1200.0" old_y="800.0" type="right_before_left" weight_num="4.0" weight_sum="2.34989200864" x="7813.26806275" x_displacement_sum="6613.26806275" y="-6042.23129093" y_displacement_sum="-6842.23129093" />
    <node avg_slowdown_ratio="0.58603311735" id="node_08x13" junction="True" old_x="800.0" old_y="1300.0" type="right_before_left" weight_num="4.0" weight_sum="2.3441324694" x="-3427.1931454" x_displacement_sum="-4227.1931454" y="10396.6745583" y_displacement_sum="9096.67455825" />
    <node avg_slowdown_ratio="0.585673146147" id="node_07x13" junction="True" old_x="700.0" old_y="1300.0" type="right_before_left" weight_num="4.0" weight_sum="2.34269258459" x="-6273.1822588" x_displacement_sum="-6973.1822588" y="9536.68215663" y_displacement_sum="8236.68215663" />
    <node avg_slowdown_ratio="0.585673146147" id="node_08x11" junction="True" old_x="800.0" old_y="1100.0" type="right_before_left" weight_num="4.0" weight_sum="2.34269258459" x="-5004.20816014" x_displacement_sum="-5804.20816014" y="3995.45798948" y_displacement_sum="2895.45798948" />
    <node avg_slowdown_ratio="0.583873290138" id="node_14x10" junction="True" old_x="1400.0" old_y="1000.0" type="right_before_left" weight_num="4.0" weight_sum="2.33549316055" x="13559.9353497" x_displacement_sum="12159.9353497" y="-3.73370068" y_displacement_sum="-1003.73370068" />
    <node avg_slowdown_ratio="0.58279337653" id="node_07x11" junction="True" old_x="700.0" old_y="1100.0" type="right_before_left" weight_num="4.0" weight_sum="2.33117350612" x="-7594.30552387" x_displacement_sum="-8294.30552387" y="3580.06925253" y_displacement_sum="2480.06925253" />
    <node avg_slowdown_ratio="0.582253419725" id="node_09x10" junction="True" old_x="900.0" old_y="1000.0" type="right_before_left" weight_num="4.0" weight_sum="2.3290136789" x="-3234.79779829" x_displacement_sum="-4134.79779829" y="1117.58625063" y_displacement_sum="117.586250625" />
    <node avg_slowdown_ratio="0.581173506122" id="node_11x13" junction="True" old_x="1100.0" old_y="1300.0" type="right_before_left" weight_num="4.0" weight_sum="2.32469402449" x="3537.18483695" x_displacement_sum="2437.18483695" y="12084.978632" y_displacement_sum="10784.978632" />
    <node avg_slowdown_ratio="0.580453563715" id="node_08x10" junction="True" old_x="800.0" old_y="1000.0" type="right_before_left" weight_num="4.0" weight_sum="2.32181425486" x="-5144.36161495" x_displacement_sum="-5944.36161495" y="1232.13559249" y_displacement_sum="232.135592487" />
    <node avg_slowdown_ratio="0.57667386609" id="node_06x13" junction="True" old_x="600.0" old_y="1300.0" type="right_before_left" weight_num="4.0" weight_sum="2.30669546436" x="-9586.7540862" x_displacement_sum="-10186.7540862" y="9175.77795834" y_displacement_sum="7875.77795834" />
    <node avg_slowdown_ratio="0.576313894887" id="node_10x13" junction="True" old_x="1000.0" old_y="1300.0" type="right_before_left" weight_num="4.0" weight_sum="2.30525557955" x="108.297396764" x_displacement_sum="-891.702603236" y="11877.0338634" y_displacement_sum="10577.0338634" />
    <node avg_slowdown_ratio="0.571634269255" id="node_07x10" junction="True" old_x="700.0" old_y="1000.0" type="right_before_left" weight_num="4.0" weight_sum="2.28653707702" x="-8348.71928766" x_displacement_sum="-9048.71928766" y="982.299771635" y_displacement_sum="-17.7002283648" />
    <node avg_slowdown_ratio="0.570914326852" id="node_11x07" junction="True" old_x="1100.0" old_y="700.0" type="right_before_left" weight_num="4.0" weight_sum="2.28365730741" x="5335.4789708" x_displacement_sum="4235.4789708" y="-8552.42666489" y_displacement_sum="-9252.42666489" />
    <node avg_slowdown_ratio="0.56119510439" id="node_15x11" junction="True" old_x="1500.0" old_y="1100.0" type="right_before_left" weight_num="4.0" weight_sum="2.24478041756" x="14685.0600107" x_displacement_sum="13185.0600107" y="3369.17809687" y_displacement_sum="2269.17809687" />
    <node avg_slowdown_ratio="0.560655147588" id="node_08x12" junction="True" old_x="800.0" old_y="1200.0" type="right_before_left" weight_num="4.0" weight_sum="2.24262059035" x="-4641.09570607" x_displacement_sum="-5441.09570607" y="6757.54855675" y_displacement_sum="5557.54855675" />
    <node avg_slowdown_ratio="0.55957523398" id="node_09x09" junction="True" old_x="900.0" old_y="900.0" type="right_before_left" weight_num="4.0" weight_sum="2.23830093592" x="-3351.71143554" x_displacement_sum="-4251.71143554" y="-826.20674389" y_displacement_sum="-1726.20674389" />
    <node avg_slowdown_ratio="0.559035277178" id="node_06x11" junction="True" old_x="600.0" old_y="1100.0" type="right_before_left" weight_num="4.0" weight_sum="2.23614110871" x="-10640.8596105" x_displacement_sum="-11240.8596105" y="2634.58611702" y_displacement_sum="1534.58611702" />
    <node avg_slowdown_ratio="0.558135349172" id="node_13x07" junction="True" old_x="1300.0" old_y="700.0" type="right_before_left" weight_num="4.0" weight_sum="2.23254139669" x="8912.27101872" x_displacement_sum="7612.27101872" y="-6830.69869256" y_displacement_sum="-7530.69869256" />
    <node avg_slowdown_ratio="0.55813534917" id="node_13x09" junction="True" old_x="1300.0" old_y="900.0" type="right_before_left" weight_num="4.0" weight_sum="2.23254139668" x="11769.6413197" x_displacement_sum="10469.6413197" y="-3256.00525024" y_displacement_sum="-4156.00525024" />
    <node avg_slowdown_ratio="0.55471562275" id="node_11x06" junction="True" old_x="1100.0" old_y="600.0" type="right_before_left" weight_num="4.0" weight_sum="2.218862491" x="4189.64461535" x_displacement_sum="3089.64461535" y="-10659.6296276" y_displacement_sum="-11259.6296276" />
    <node avg_slowdown_ratio="0.551835853133" id="node_06x12" junction="True" old_x="600.0" old_y="1200.0" type="right_before_left" weight_num="4.0" weight_sum="2.20734341253" x="-9947.7072093" x_displacement_sum="-10547.7072093" y="5428.67648832" y_displacement_sum="4228.67648832" />
    <node avg_slowdown_ratio="0.550755939528" id="node_13x12" junction="True" old_x="1300.0" old_y="1200.0" type="right_before_left" weight_num="4.0" weight_sum="2.20302375811" x="11034.4258117" x_displacement_sum="9734.42581167" y="8307.36701225" y_displacement_sum="7107.36701225" />
    <node avg_slowdown_ratio="0.547876169907" id="node_12x13" junction="True" old_x="1200.0" old_y="1300.0" type="right_before_left" weight_num="4.0" weight_sum="2.19150467963" x="6938.41003358" x_displacement_sum="5738.41003358" y="12176.3999171" y_displacement_sum="10876.3999171" />
    <node avg_slowdown_ratio="0.54247660187" id="node_09x13" junction="True" old_x="900.0" old_y="1300.0" type="right_before_left" weight_num="4.0" weight_sum="2.16990640748" x="-1671.19202496" x_displacement_sum="-2571.19202496" y="11318.3781903" y_displacement_sum="10018.3781903" />
    <node avg_slowdown_ratio="0.541936645067" id="node_13x13" junction="True" old_x="1300.0" old_y="1300.0" type="right_before_left" weight_num="4.0" weight_sum="2.16774658027" x="9717.75987241" x_displacement_sum="8417.75987241" y="11008.0267013" y_displacement_sum="9708.02670134" />
    <node avg_slowdown_ratio="0.541216702665" id="node_07x12" junction="True" old_x="700.0" old_y="1200.0" type="right_before_left" weight_num="4.0" weight_sum="2.16486681066" x="-6872.16965661" x_displacement_sum="-7572.16965661" y="6045.50060365" y_displacement_sum="4845.50060365" />
    <node avg_slowdown_ratio="0.537796976243" id="node_10x05" junction="True" old_x="1000.0" old_y="500.0" type="right_before_left" weight_num="4.0" weight_sum="2.15118790497" x="-72.70026894" x_displacement_sum="-1072.70026894" y="-12426.3719717" y_displacement_sum="-12926.3719717" />
    <node avg_slowdown_ratio="0.53437724982" id="node_10x06" junction="True" old_x="1000.0" old_y="600.0" type="right_before_left" weight_num="4.0" weight_sum="2.13750899928" x="80.065333742" x_displacement_sum="-919.934666258" y="-11478.3257411" y_displacement_sum="-12078.3257411" />
    <node avg_slowdown_ratio="0.533837293015" id="node_15x12" junction="True" old_x="1500.0" old_y="1200.0" type="right_before_left" weight_num="4.0" weight_sum="2.13534917206" x="14203.7165645" x_displacement_sum="12703.7165645" y="7522.93402625" y_displacement_sum="6322.93402625" />
    <node avg_slowdown_ratio="0.531137508998" id="node_06x10" junction="True" old_x="600.0" old_y="1000.0" type="right_before_left" weight_num="4.0" weight_sum="2.12455003599" x="-11580.3782382" x_displacement_sum="-12180.3782382" y="-134.99551735" y_displacement_sum="-1134.99551735" />
    <node avg_slowdown_ratio="0.528977681788" id="node_12x04" junction="True" old_x="1200.0" old_y="400.0" type="right_before_left" weight_num="4.0" weight_sum="2.11591072715" x="5520.87924271" x_displacement_sum="4320.87924271" y="-14206.0231197" y_displacement_sum="-14606.0231197" />
    <node avg_slowdown_ratio="0.526997840175" id="node_11x14" junction="True" old_x="1100.0" old_y="1400.0" type="right_before_left" weight_num="4.0" weight_sum="2.1079913607" x="3504.99468031" x_displacement_sum="2404.99468031" y="13543.0471305" y_displacement_sum="12143.0471305" />
    <node avg_slowdown_ratio="0.52609791217" id="node_13x08" junction="True" old_x="1300.0" old_y="800.0" type="right_before_left" weight_num="4.0" weight_sum="2.10439164868" x="10403.4405544" x_displacement_sum="9103.44055438" y="-4610.34196142" y_displacement_sum="-5410.34196142" />
    <node avg_slowdown_ratio="0.52051835853" id="node_06x08" junction="True" old_x="600.0" old_y="800.0" type="right_before_left" weight_num="4.0" weight_sum="2.08207343412" x="-11859.054821" x_displacement_sum="-12459.054821" y="-4222.70752935" y_displacement_sum="-5022.70752935" />
    <node avg_slowdown_ratio="0.519438444923" id="node_14x07" junction="True" old_x="1400.0" old_y="700.0" type="right_before_left" weight_num="4.0" weight_sum="2.07775377969" x="11972.7494824" x_displacement_sum="10572.7494824" y="-5960.31979911" y_displacement_sum="-6660.31979911" />
    <node avg_slowdown_ratio="0.519078473723" id="node_14x08" junction="True" old_x="1400.0" old_y="800.0" type="right_before_left" weight_num="4.0" weight_sum="2.07631389489" x="12679.5422062" x_displacement_sum="11279.5422062" y="-3364.22848952" y_displacement_sum="-4164.22848952" />
    <node avg_slowdown_ratio="0.517818574513" id="node_13x06" junction="True" old_x="1300.0" old_y="600.0" type="right_before_left" weight_num="4.0" weight_sum="2.07127429805" x="8169.44316307" x_displacement_sum="6869.44316307" y="-9572.0117726" y_displacement_sum="-10172.0117726" />
    <node avg_slowdown_ratio="0.51745860331" id="node_05x11" junction="True" old_x="500.0" old_y="1100.0" type="right_before_left" weight_num="4.0" weight_sum="2.06983441324" x="-13208.6301594" x_displacement_sum="-13708.6301594" y="2120.58235994" y_displacement_sum="1020.58235994" />
    <node avg_slowdown_ratio="0.516918646507" id="node_14x11" junction="True" old_x="1400.0" old_y="1100.0" type="right_before_left" weight_num="4.0" weight_sum="2.06767458603" x="12816.2011444" x_displacement_sum="11416.2011444" y="4432.05011306" y_displacement_sum="3332.05011306" />
    <node avg_slowdown_ratio="0.514938804897" id="node_14x12" junction="True" old_x="1400.0" old_y="1200.0" type="right_before_left" weight_num="4.0" weight_sum="2.05975521959" x="12183.0710396" x_displacement_sum="10783.0710396" y="7436.06750061" y_displacement_sum="6236.06750061" />
    <node avg_slowdown_ratio="0.513138948885" id="node_15x10" junction="True" old_x="1500.0" old_y="1000.0" type="right_before_left" weight_num="4.0" weight_sum="2.05255579554" x="15551.9976243" x_displacement_sum="14051.9976243" y="-331.24206721" y_displacement_sum="-1331.24206721" />
    <node avg_slowdown_ratio="0.508999280057" id="node_12x07" junction="True" old_x="1200.0" old_y="700.0" type="right_before_left" weight_num="4.0" weight_sum="2.03599712023" x="6909.31703997" x_displacement_sum="5709.31703997" y="-8034.08324265" y_displacement_sum="-8734.08324265" />
    <node avg_slowdown_ratio="0.505579553635" id="node_11x04" junction="True" old_x="1100.0" old_y="400.0" type="right_before_left" weight_num="4.0" weight_sum="2.02231821454" x="2845.58280597" x_displacement_sum="1745.58280597" y="-14586.7122159" y_displacement_sum="-14986.7122159" />
    <node avg_slowdown_ratio="0.50485961123" id="node_12x06" junction="True" old_x="1200.0" old_y="600.0" type="right_before_left" weight_num="4.0" weight_sum="2.01943844492" x="6361.41665994" x_displacement_sum="5161.41665994" y="-10097.8471856" y_displacement_sum="-10697.8471856" />
    <node avg_slowdown_ratio="0.504319654428" id="node_11x05" junction="True" old_x="1100.0" old_y="500.0" type="right_before_left" weight_num="4.0" weight_sum="2.01727861771" x="3881.73926854" x_displacement_sum="2781.73926854" y="-12085.7584104" y_displacement_sum="-12585.7584104" />
    <node avg_slowdown_ratio="0.502699784018" id="node_05x12" junction="True" old_x="500.0" old_y="1200.0" type="right_before_left" weight_num="4.0" weight_sum="2.01079913607" x="-13056.2362695" x_displacement_sum="-13556.2362695" y="5176.42976302" y_displacement_sum="3976.42976302" />
    <node avg_slowdown_ratio="0.5" id="node_10x15" junction="True" old_x="1000.0" old_y="1500.0" type="right_before_left" weight_num="4.0" weight_sum="2.0" x="839.641516862" x_displacement_sum="-160.358483138" y="14517.3336649" y_displacement_sum="13017.3336649" />
    <node avg_slowdown_ratio="0.499999999997" id="node_14x06" junction="True" old_x="1400.0" old_y="600.0" type="right_before_left" weight_num="4.0" weight_sum="1.99999999999" x="10999.0076462" x_displacement_sum="9599.00764618" y="-8771.11069879" y_displacement_sum="-9371.11069879" />
    <node avg_slowdown_ratio="0.499640028798" id="node_06x09" junction="True" old_x="600.0" old_y="900.0" type="right_before_left" weight_num="4.0" weight_sum="1.99856011519" x="-12435.4725346" x_displacement_sum="-13035.4725346" y="-1795.07101189" y_displacement_sum="-2695.07101189" />
    <node avg_slowdown_ratio="0.499640028795" id="node_14x13" junction="True" old_x="1400.0" old_y="1300.0" type="right_before_left" weight_num="4.0" weight_sum="1.99856011518" x="12112.6341845" x_displacement_sum="10712.6341845" y="10249.0578552" y_displacement_sum="8949.05785516" />
    <node avg_slowdown_ratio="0.498740100792" id="node_08x06" junction="True" old_x="800.0" old_y="600.0" type="right_before_left" weight_num="4.0" weight_sum="1.99496040317" x="-5542.19786658" x_displacement_sum="-6342.19786658" y="-11696.5878831" y_displacement_sum="-12296.5878831" />
    <node avg_slowdown_ratio="0.497480201583" id="node_07x14" junction="True" old_x="700.0" old_y="1400.0" type="right_before_left" weight_num="4.0" weight_sum="1.98992080633" x="-5810.63220664" x_displacement_sum="-6510.63220664" y="12312.322594" y_displacement_sum="10912.322594" />
    <node avg_slowdown_ratio="0.497300215983" id="node_06x07" junction="True" old_x="600.0" old_y="700.0" type="right_before_left" weight_num="4.0" weight_sum="1.98920086393" x="-10034.3727598" x_displacement_sum="-10634.3727598" y="-7432.17558041" y_displacement_sum="-8132.17558041" />
    <node avg_slowdown_ratio="0.497120230382" id="node_08x15" junction="True" old_x="800.0" old_y="1500.0" type="right_before_left" weight_num="4.0" weight_sum="1.98848092153" x="-2662.15186163" x_displacement_sum="-3462.15186163" y="14352.8723784" y_displacement_sum="12852.8723784" />
    <node avg_slowdown_ratio="0.49496040317" id="node_16x11" junction="True" old_x="1600.0" old_y="1100.0" type="right_before_left" weight_num="4.0" weight_sum="1.97984161268" x="17619.724878" x_displacement_sum="16019.724878" y="2773.67395637" y_displacement_sum="1673.67395637" />
    <node avg_slowdown_ratio="0.493160547158" id="node_10x04" junction="True" old_x="1000.0" old_y="400.0" type="right_before_left" weight_num="4.0" weight_sum="1.97264218863" x="-192.50746989" x_displacement_sum="-1192.50746989" y="-14819.6639203" y_displacement_sum="-15219.6639203" />
    <node avg_slowdown_ratio="0.49226061915" id="node_05x13" junction="True" old_x="500.0" old_y="1300.0" type="right_before_left" weight_num="4.0" weight_sum="1.9690424766" x="-12384.849748" x_displacement_sum="-12884.849748" y="7941.98292899" y_displacement_sum="6641.98292899" />
    <node avg_slowdown_ratio="0.487580993523" id="node_13x15" junction="True" old_x="1300.0" old_y="1500.0" type="right_before_left" weight_num="4.0" weight_sum="1.95032397409" x="8153.73473" x_displacement_sum="6853.73473" y="14246.2815939" y_displacement_sum="12746.2815939" />
    <node avg_slowdown_ratio="0.486501079915" id="node_07x15" junction="True" old_x="700.0" old_y="1500.0" type="right_before_left" weight_num="4.0" weight_sum="1.94600431966" x="-5156.17428578" x_displacement_sum="-5856.17428578" y="13722.3123867" y_displacement_sum="12222.3123867" />
    <node avg_slowdown_ratio="0.486141108712" id="node_09x06" junction="True" old_x="900.0" old_y="600.0" type="right_before_left" weight_num="4.0" weight_sum="1.94456443485" x="-2935.76570058" x_displacement_sum="-3835.76570058" y="-11912.6670507" y_displacement_sum="-12512.6670507" />
    <node avg_slowdown_ratio="0.486141108712" id="node_11x15" junction="True" old_x="1100.0" old_y="1500.0" type="right_before_left" weight_num="4.0" weight_sum="1.94456443485" x="3572.91964045" x_displacement_sum="2472.91964045" y="14880.3906375" y_displacement_sum="13380.3906375" />
    <node avg_slowdown_ratio="0.48614110871" id="node_07x07" junction="True" old_x="700.0" old_y="700.0" type="right_before_left" weight_num="4.0" weight_sum="1.94456443484" x="-8937.9086194" x_displacement_sum="-9637.9086194" y="-8833.72770894" y_displacement_sum="-9533.72770894" />
    <node avg_slowdown_ratio="0.4843412527" id="node_09x15" junction="True" old_x="900.0" old_y="1500.0" type="right_before_left" weight_num="4.0" weight_sum="1.9373650108" x="-1056.432051" x_displacement_sum="-1956.432051" y="14550.3567577" y_displacement_sum="13050.3567577" />
    <node avg_slowdown_ratio="0.48164146868" id="node_13x05" junction="True" old_x="1300.0" old_y="500.0" type="right_before_left" weight_num="4.0" weight_sum="1.92656587472" x="7773.40725329" x_displacement_sum="6473.40725329" y="-11366.4139346" y_displacement_sum="-11866.4139346" />
    <node avg_slowdown_ratio="0.480381569475" id="node_10x14" junction="True" old_x="1000.0" old_y="1400.0" type="right_before_left" weight_num="4.0" weight_sum="1.9215262779" x="346.587471408" x_displacement_sum="-653.412528592" y="13297.8494628" y_displacement_sum="11897.8494628" />
    <node avg_slowdown_ratio="0.480201583873" id="node_04x07" junction="True" old_x="400.0" old_y="700.0" type="right_before_left" weight_num="4.0" weight_sum="1.92080633549" x="-13760.929861" x_displacement_sum="-14160.929861" y="-5414.74947199" y_displacement_sum="-6114.74947199" />
    <node avg_slowdown_ratio="0.479301655868" id="node_09x05" junction="True" old_x="900.0" old_y="500.0" type="right_before_left" weight_num="4.0" weight_sum="1.91720662347" x="-3131.95137677" x_displacement_sum="-4031.95137677" y="-12385.1051744" y_displacement_sum="-12885.1051744" />
    <node avg_slowdown_ratio="0.47822174226" id="node_12x15" junction="True" old_x="1200.0" old_y="1500.0" type="right_before_left" weight_num="4.0" weight_sum="1.91288696904" x="5820.1669281" x_displacement_sum="4620.1669281" y="14636.0238074" y_displacement_sum="13136.0238074" />
    <node avg_slowdown_ratio="0.47660187185" id="node_05x07" junction="True" old_x="500.0" old_y="700.0" type="right_before_left" weight_num="4.0" weight_sum="1.9064074874" x="-11480.7656158" x_displacement_sum="-11980.7656158" y="-6342.6687112" y_displacement_sum="-7042.6687112" />
    <node avg_slowdown_ratio="0.475881929445" id="node_08x14" junction="True" old_x="800.0" old_y="1400.0" type="right_before_left" weight_num="4.0" weight_sum="1.90352771778" x="-2905.49470605" x_displacement_sum="-3705.49470605" y="12717.5879364" y_displacement_sum="11317.5879364" />
    <node avg_slowdown_ratio="0.47516198704" id="node_16x12" junction="True" old_x="1600.0" old_y="1200.0" type="right_before_left" weight_num="4.0" weight_sum="1.90064794816" x="16850.2378403" x_displacement_sum="15250.2378403" y="6712.80440523" y_displacement_sum="5512.80440523" />
    <node avg_slowdown_ratio="0.473902087835" id="node_12x14" junction="True" old_x="1200.0" old_y="1400.0" type="right_before_left" weight_num="4.0" weight_sum="1.89560835134" x="6475.60560746" x_displacement_sum="5275.60560746" y="13164.9876382" y_displacement_sum="11764.9876382" />
    <node avg_slowdown_ratio="0.473902087832" id="node_13x14" junction="True" old_x="1300.0" old_y="1400.0" type="right_before_left" weight_num="4.0" weight_sum="1.89560835133" x="8808.86382752" x_displacement_sum="7508.86382752" y="12456.6165619" y_displacement_sum="11056.6165619" />
    <node avg_slowdown_ratio="0.472642188628" id="node_13x04" junction="True" old_x="1300.0" old_y="400.0" type="right_before_left" weight_num="4.0" weight_sum="1.89056875451" x="8205.15171533" x_displacement_sum="6905.15171533" y="-13771.274946" y_displacement_sum="-14171.274946" />
    <node avg_slowdown_ratio="0.47210223182" id="node_05x14" junction="True" old_x="500.0" old_y="1400.0" type="right_before_left" weight_num="4.0" weight_sum="1.88840892728" x="-10858.2638166" x_displacement_sum="-11358.2638166" y="10363.1656818" y_displacement_sum="8963.16568185" />
    <node avg_slowdown_ratio="0.47210223182" id="node_06x15" junction="True" old_x="600.0" old_y="1500.0" type="right_before_left" weight_num="4.0" weight_sum="1.88840892728" x="-7643.75341569" x_displacement_sum="-8243.75341569" y="12857.4139498" y_displacement_sum="11357.4139498" />
    <node avg_slowdown_ratio="0.468142548597" id="node_04x11" junction="True" old_x="400.0" old_y="1100.0" type="right_before_left" weight_num="4.0" weight_sum="1.87257019439" x="-15005.169964" x_displacement_sum="-15405.169964" y="2354.26081082" y_displacement_sum="1254.26081082" />
    <node avg_slowdown_ratio="0.467602591793" id="node_15x07" junction="True" old_x="1500.0" old_y="700.0" type="right_before_left" weight_num="4.0" weight_sum="1.87041036717" x="13768.1681338" x_displacement_sum="12268.1681338" y="-5172.1046922" y_displacement_sum="-5872.1046922" />