<configuration>
    <files>
        <net-file value="C:\Users\zs633\Capstone\AUH\osm\island.net.xml"/>
        <route-files value="island.rou.xml"/>
        <additional-files value="island.add.xml"/>
    </files>
    <process>
        <begin value="0"/>
        <end value="3600"/>
        <routing-algorithm value="astar"/>
    </process>
    <reports>
        <verbose value="True"/>
        <no-warnings value="True"/>
    </reports>
</configuration>
