<?xml version="1.0" encoding="UTF-8"?>

<!-- generated on 02/06/17 18:38:10 by SUMO netconvert Version 0.27.1
<?xml version="1.0" encoding="UTF-8"?>

<configuration xmlns:xsi="http://www.w3.org/2001/XMLSchema-instance" xsi:noNamespaceSchemaLocation="http://sumo.dlr.de/xsd/netconvertConfiguration.xsd">

    <input>
        <node-files value="C:\Users\zs633\capstone\10_spherical\test_random2\7_displaced\spherical.nod.xml"/>
        <edge-files value="C:\Users\zs633\capstone\10_spherical\test_random2\7_displaced\spherical.edg.xml"/>
        <connection-files value="C:\Users\zs633\capstone\10_spherical\test_random2\4_plain\test.con.xml"/>
        <tllogic-files value="C:\Users\zs633\capstone\10_spherical\test_random2\4_plain\test.tll.xml"/>
    </input>

    <output>
        <output-file value="C:\Users\zs633\capstone\10_spherical\test_random2\9_output_net\spherical.net.xml"/>
    </output>

    <processing>
        <ignore-errors value="true"/>
        <ignore-errors.edge-type value="true"/>
    </processing>

    <report>
        <verbose value="true"/>
        <xml-validation value="never"/>
        <no-warnings value="true"/>
    </report>

</configuration>
-->

<net version="0.27" xmlns:xsi="http://www.w3.org/2001/XMLSchema-instance" xsi:noNamespaceSchemaLocation="http://sumo.dlr.de/xsd/net_file.xsd">

    <location netOffset="0.00,0.00" convBoundary="0.00,0.00,2000.00,2000.00" origBoundary="0.00,0.00,2000.00,2000.00" projParameter="!"/>

    <edge id=":node_00x00_0" function="internal">
        <lane id=":node_00x00_0_0" index="0" disallow="tram rail_urban rail rail_electric ship" speed="13.89" length="4.82" shape="-1.65,0.00 -0.83,-1.24 0.00,-1.65 0.83,-1.24 1.65,0.00"/>
    </edge>
    <edge id=":node_00x01_0" function="internal">
        <lane id=":node_00x01_0_0" index="0" disallow="tram rail_urban rail rail_electric ship" speed="13.89" length="0.10" shape="-1.65,100.00 -1.65,100.00"/>
    </edge>
    <edge id=":node_00x01_1" function="internal">
        <lane id=":node_00x01_1_0" index="0" disallow="tram rail_urban rail rail_electric ship" speed="13.89" length="0.10" shape="1.65,100.00 1.65,100.00"/>
    </edge>
    <edge id=":node_00x02_0" function="internal">
        <lane id=":node_00x02_0_0" index="0" disallow="tram rail_urban rail rail_electric ship" speed="13.89" length="9.50" shape="-1.65,204.75 -1.65,195.25"/>
    </edge>
    <edge id=":node_00x02_1" function="internal">
        <lane id=":node_00x02_1_0" index="0" disallow="tram rail_urban rail rail_electric ship" speed="13.89" length="10.32" shape="-1.65,204.75 -1.25,201.95 -0.05,199.95 1.95,198.75 4.75,198.35"/>
    </edge>
    <edge id=":node_00x02_2" function="internal">
        <lane id=":node_00x02_2_0" index="0" disallow="tram rail_urban rail rail_electric ship" speed="13.89" length="5.00" shape="4.75,201.65 3.39,201.84 2.43,202.43 1.84,203.39 1.65,204.75"/>
    </edge>
    <edge id=":node_00x02_3" function="internal">
        <lane id=":node_00x02_3_0" index="0" disallow="tram rail_urban rail rail_electric ship" speed="13.89" length="10.32" shape="4.75,201.65 1.95,201.25 -0.05,200.05 -1.25,198.05 -1.65,195.25"/>
    </edge>
    <edge id=":node_00x02_4" function="internal">
        <lane id=":node_00x02_4_0" index="0" disallow="tram rail_urban rail rail_electric ship" speed="13.89" length="5.00" shape="1.65,195.25 1.84,196.61 2.43,197.58 3.39,198.16 4.75,198.35"/>
    </edge>
    <edge id=":node_00x02_5" function="internal">
        <lane id=":node_00x02_5_0" index="0" disallow="tram rail_urban rail rail_electric ship" speed="13.89" length="9.50" shape="1.65,195.25 1.65,204.75"/>
    </edge>
    <edge id=":node_00x03_0" function="internal">
        <lane id=":node_00x03_0_0" index="0" disallow="tram rail_urban rail rail_electric ship" speed="13.89" length="9.50" shape="-1.65,304.75 -1.65,295.25"/>
    </edge>
    <edge id=":node_00x03_1" function="internal">
        <lane id=":node_00x03_1_0" index="0" disallow="tram rail_urban rail rail_electric ship" speed="13.89" length="10.32" shape="-1.65,304.75 -1.25,301.95 -0.05,299.95 1.95,298.75 4.75,298.35"/>
    </edge>
    <edge id=":node_00x03_2" function="internal">
        <lane id=":node_00x03_2_0" index="0" disallow="tram rail_urban rail rail_electric ship" speed="13.89" length="5.00" shape="4.75,301.65 3.39,301.84 2.43,302.42 1.84,303.39 1.65,304.75"/>
    </edge>
    <edge id=":node_00x03_3" function="internal">
        <lane id=":node_00x03_3_0" index="0" disallow="tram rail_urban rail rail_electric ship" speed="13.89" length="10.32" shape="4.75,301.65 1.95,301.25 -0.05,300.05 -1.25,298.05 -1.65,295.25"/>
    </edge>
    <edge id=":node_00x03_4" function="internal">
        <lane id=":node_00x03_4_0" index="0" disallow="tram rail_urban rail rail_electric ship" speed="13.89" length="5.00" shape="1.65,295.25 1.84,296.61 2.43,297.58 3.39,298.16 4.75,298.35"/>
    </edge>
    <edge id=":node_00x03_5" function="internal">
        <lane id=":node_00x03_5_0" index="0" disallow="tram rail_urban rail rail_electric ship" speed="13.89" length="9.50" shape="1.65,295.25 1.65,304.75"/>
    </edge>
    <edge id=":node_00x04_0" function="internal">
        <lane id=":node_00x04_0_0" index="0" disallow="tram rail_urban rail rail_electric ship" speed="13.89" length="9.50" shape="-1.65,404.75 -1.65,395.25"/>
    </edge>
    <edge id=":node_00x04_1" function="internal">
        <lane id=":node_00x04_1_0" index="0" disallow="tram rail_urban rail rail_electric ship" speed="13.89" length="10.32" shape="-1.65,404.75 -1.25,401.95 -0.05,399.95 1.95,398.75 4.75,398.35"/>
    </edge>
    <edge id=":node_00x04_2" function="internal">
        <lane id=":node_00x04_2_0" index="0" disallow="tram rail_urban rail rail_electric ship" speed="13.89" length="5.00" shape="4.75,401.65 3.39,401.84 2.43,402.42 1.84,403.39 1.65,404.75"/>
    </edge>
    <edge id=":node_00x04_3" function="internal">
        <lane id=":node_00x04_3_0" index="0" disallow="tram rail_urban rail rail_electric ship" speed="13.89" length="10.32" shape="4.75,401.65 1.95,401.25 -0.05,400.05 -1.25,398.05 -1.65,395.25"/>
    </edge>
    <edge id=":node_00x04_4" function="internal">
        <lane id=":node_00x04_4_0" index="0" disallow="tram rail_urban rail rail_electric ship" speed="13.89" length="5.00" shape="1.65,395.25 1.84,396.61 2.43,397.58 3.39,398.16 4.75,398.35"/>
    </edge>
    <edge id=":node_00x04_5" function="internal">
        <lane id=":node_00x04_5_0" index="0" disallow="tram rail_urban rail rail_electric ship" speed="13.89" length="9.50" shape="1.65,395.25 1.65,404.75"/>
    </edge>
    <edge id=":node_00x05_0" function="internal">
        <lane id=":node_00x05_0_0" index="0" disallow="tram rail_urban rail rail_electric ship" speed="13.89" length="0.10" shape="-1.65,500.00 -1.65,500.00"/>
    </edge>
    <edge id=":node_00x05_1" function="internal">
        <lane id=":node_00x05_1_0" index="0" disallow="tram rail_urban rail rail_electric ship" speed="13.89" length="0.10" shape="1.65,500.00 1.65,500.00"/>
    </edge>
    <edge id=":node_00x06_0" function="internal">
        <lane id=":node_00x06_0_0" index="0" disallow="tram rail_urban rail rail_electric ship" speed="13.89" length="9.50" shape="-1.65,604.75 -1.65,595.25"/>
    </edge>
    <edge id=":node_00x06_1" function="internal">
        <lane id=":node_00x06_1_0" index="0" disallow="tram rail_urban rail rail_electric ship" speed="13.89" length="10.32" shape="-1.65,604.75 -1.25,601.95 -0.05,599.95 1.95,598.75 4.75,598.35"/>
    </edge>
    <edge id=":node_00x06_2" function="internal">
        <lane id=":node_00x06_2_0" index="0" disallow="tram rail_urban rail rail_electric ship" speed="13.89" length="5.00" shape="4.75,601.65 3.39,601.84 2.43,602.42 1.84,603.39 1.65,604.75"/>
    </edge>
    <edge id=":node_00x06_3" function="internal">
        <lane id=":node_00x06_3_0" index="0" disallow="tram rail_urban rail rail_electric ship" speed="13.89" length="10.32" shape="4.75,601.65 1.95,601.25 -0.05,600.05 -1.25,598.05 -1.65,595.25"/>
    </edge>
    <edge id=":node_00x06_4" function="internal">
        <lane id=":node_00x06_4_0" index="0" disallow="tram rail_urban rail rail_electric ship" speed="13.89" length="5.00" shape="1.65,595.25 1.84,596.61 2.43,597.58 3.39,598.16 4.75,598.35"/>
    </edge>
    <edge id=":node_00x06_5" function="internal">
        <lane id=":node_00x06_5_0" index="0" disallow="tram rail_urban rail rail_electric ship" speed="13.89" length="9.50" shape="1.65,595.25 1.65,604.75"/>
    </edge>
    <edge id=":node_00x07_0" function="internal">
        <lane id=":node_00x07_0_0" index="0" disallow="tram rail_urban rail rail_electric ship" speed="13.89" length="7.90" shape="3.25,701.65 1.11,701.34 -0.43,700.42 -1.34,698.89 -1.65,696.75"/>
    </edge>
    <edge id=":node_00x07_1" function="internal">
        <lane id=":node_00x07_1_0" index="0" disallow="tram rail_urban rail rail_electric ship" speed="13.89" length="2.58" shape="1.65,696.75 1.75,697.45 2.05,697.95 2.55,698.25 3.25,698.35"/>
    </edge>
    <edge id=":node_00x08_0" function="internal">
        <lane id=":node_00x08_0_0" index="0" disallow="tram rail_urban rail rail_electric ship" speed="13.89" length="4.82" shape="0.00,801.65 -1.24,800.82 -1.65,800.00 -1.24,799.17 0.00,798.35"/>
    </edge>
    <edge id=":node_00x09_0" function="internal">
        <lane id=":node_00x09_0_0" index="0" disallow="tram rail_urban rail rail_electric ship" speed="13.89" length="4.82" shape="0.00,901.65 -1.24,900.82 -1.65,900.00 -1.24,899.17 0.00,898.35"/>
    </edge>
    <edge id=":node_00x10_0" function="internal">
        <lane id=":node_00x10_0_0" index="0" disallow="tram rail_urban rail rail_electric ship" speed="13.89" length="7.90" shape="-1.65,1003.25 -1.34,1001.11 -0.43,999.57 1.11,998.66 3.25,998.35"/>
    </edge>
    <edge id=":node_00x10_1" function="internal">
        <lane id=":node_00x10_1_0" index="0" disallow="tram rail_urban rail rail_electric ship" speed="13.89" length="2.58" shape="3.25,1001.65 2.55,1001.75 2.05,1002.05 1.75,1002.55 1.65,1003.25"/>
    </edge>
    <edge id=":node_00x11_0" function="internal">
        <lane id=":node_00x11_0_0" index="0" disallow="tram rail_urban rail rail_electric ship" speed="13.89" length="7.90" shape="3.25,1101.65 1.11,1101.34 -0.43,1100.43 -1.34,1098.89 -1.65,1096.75"/>
    </edge>
    <edge id=":node_00x11_1" function="internal">
        <lane id=":node_00x11_1_0" index="0" disallow="tram rail_urban rail rail_electric ship" speed="13.89" length="2.58" shape="1.65,1096.75 1.75,1097.45 2.05,1097.95 2.55,1098.25 3.25,1098.35"/>
    </edge>
    <edge id=":node_00x12_0" function="internal">
        <lane id=":node_00x12_0_0" index="0" disallow="tram rail_urban rail rail_electric ship" speed="13.89" length="4.82" shape="-1.65,1200.00 -0.83,1198.76 0.00,1198.35 0.83,1198.76 1.65,1200.00"/>
    </edge>
    <edge id=":node_00x13_0" function="internal">
        <lane id=":node_00x13_0_0" index="0" disallow="tram rail_urban rail rail_electric ship" speed="13.89" length="9.50" shape="-1.65,1304.75 -1.65,1295.25"/>
    </edge>
    <edge id=":node_00x13_1" function="internal">
        <lane id=":node_00x13_1_0" index="0" disallow="tram rail_urban rail rail_electric ship" speed="13.89" length="10.32" shape="-1.65,1304.75 -1.25,1301.95 -0.05,1299.95 1.95,1298.75 4.75,1298.35"/>
    </edge>
    <edge id=":node_00x13_2" function="internal">
        <lane id=":node_00x13_2_0" index="0" disallow="tram rail_urban rail rail_electric ship" speed="13.89" length="5.00" shape="4.75,1301.65 3.39,1301.84 2.43,1302.43 1.84,1303.39 1.65,1304.75"/>
    </edge>
    <edge id=":node_00x13_3" function="internal">
        <lane id=":node_00x13_3_0" index="0" disallow="tram rail_urban rail rail_electric ship" speed="13.89" length="10.32" shape="4.75,1301.65 1.95,1301.25 -0.05,1300.05 -1.25,1298.05 -1.65,1295.25"/>
    </edge>
    <edge id=":node_00x13_4" function="internal">
        <lane id=":node_00x13_4_0" index="0" disallow="tram rail_urban rail rail_electric ship" speed="13.89" length="5.00" shape="1.65,1295.25 1.84,1296.61 2.43,1297.57 3.39,1298.16 4.75,1298.35"/>
    </edge>
    <edge id=":node_00x13_5" function="internal">
        <lane id=":node_00x13_5_0" index="0" disallow="tram rail_urban rail rail_electric ship" speed="13.89" length="9.50" shape="1.65,1295.25 1.65,1304.75"/>
    </edge>
    <edge id=":node_00x14_0" function="internal">
        <lane id=":node_00x14_0_0" index="0" disallow="tram rail_urban rail rail_electric ship" speed="13.89" length="9.50" shape="-1.65,1404.75 -1.65,1395.25"/>
    </edge>
    <edge id=":node_00x14_1" function="internal">
        <lane id=":node_00x14_1_0" index="0" disallow="tram rail_urban rail rail_electric ship" speed="13.89" length="10.32" shape="-1.65,1404.75 -1.25,1401.95 -0.05,1399.95 1.95,1398.75 4.75,1398.35"/>
    </edge>
    <edge id=":node_00x14_2" function="internal">
        <lane id=":node_00x14_2_0" index="0" disallow="tram rail_urban rail rail_electric ship" speed="13.89" length="5.00" shape="4.75,1401.65 3.39,1401.84 2.43,1402.43 1.84,1403.39 1.65,1404.75"/>
    </edge>
    <edge id=":node_00x14_3" function="internal">
        <lane id=":node_00x14_3_0" index="0" disallow="tram rail_urban rail rail_electric ship" speed="13.89" length="10.32" shape="4.75,1401.65 1.95,1401.25 -0.05,1400.05 -1.25,1398.05 -1.65,1395.25"/>
    </edge>
    <edge id=":node_00x14_4" function="internal">
        <lane id=":node_00x14_4_0" index="0" disallow="tram rail_urban rail rail_electric ship" speed="13.89" length="5.00" shape="1.65,1395.25 1.84,1396.61 2.43,1397.57 3.39,1398.16 4.75,1398.35"/>
    </edge>
    <edge id=":node_00x14_5" function="internal">
        <lane id=":node_00x14_5_0" index="0" disallow="tram rail_urban rail rail_electric ship" speed="13.89" length="9.50" shape="1.65,1395.25 1.65,1404.75"/>
    </edge>
    <edge id=":node_00x15_0" function="internal">
        <lane id=":node_00x15_0_0" index="0" disallow="tram rail_urban rail rail_electric ship" speed="13.89" length="4.82" shape="1.65,1500.00 0.83,1501.24 0.00,1501.65 -0.83,1501.24 -1.65,1500.00"/>
    </edge>
    <edge id=":node_00x16_0" function="internal">
        <lane id=":node_00x16_0_0" index="0" disallow="tram rail_urban rail rail_electric ship" speed="13.89" length="4.82" shape="-1.65,1600.00 -0.83,1598.76 0.00,1598.35 0.83,1598.76 1.65,1600.00"/>
    </edge>
    <edge id=":node_00x17_0" function="internal">
        <lane id=":node_00x17_0_0" index="0" disallow="tram rail_urban rail rail_electric ship" speed="13.89" length="9.50" shape="-1.65,1704.75 -1.65,1695.25"/>
    </edge>
    <edge id=":node_00x17_1" function="internal">
        <lane id=":node_00x17_1_0" index="0" disallow="tram rail_urban rail rail_electric ship" speed="13.89" length="10.32" shape="-1.65,1704.75 -1.25,1701.95 -0.05,1699.95 1.95,1698.75 4.75,1698.35"/>
    </edge>
    <edge id=":node_00x17_2" function="internal">
        <lane id=":node_00x17_2_0" index="0" disallow="tram rail_urban rail rail_electric ship" speed="13.89" length="5.00" shape="4.75,1701.65 3.39,1701.84 2.43,1702.43 1.84,1703.39 1.65,1704.75"/>
    </edge>
    <edge id=":node_00x17_3" function="internal">
        <lane id=":node_00x17_3_0" index="0" disallow="tram rail_urban rail rail_electric ship" speed="13.89" length="10.32" shape="4.75,1701.65 1.95,1701.25 -0.05,1700.05 -1.25,1698.05 -1.65,1695.25"/>
    </edge>
    <edge id=":node_00x17_4" function="internal">
        <lane id=":node_00x17_4_0" index="0" disallow="tram rail_urban rail rail_electric ship" speed="13.89" length="5.00" shape="1.65,1695.25 1.84,1696.61 2.43,1697.57 3.39,1698.16 4.75,1698.35"/>
    </edge>
    <edge id=":node_00x17_5" function="internal">
        <lane id=":node_00x17_5_0" index="0" disallow="tram rail_urban rail rail_electric ship" speed="13.89" length="9.50" shape="1.65,1695.25 1.65,1704.75"/>
    </edge>
    <edge id=":node_00x18_0" function="internal">
        <lane id=":node_00x18_0_0" index="0" disallow="tram rail_urban rail rail_electric ship" speed="13.89" length="7.90" shape="3.25,1801.65 1.11,1801.34 -0.43,1800.43 -1.34,1798.89 -1.65,1796.75"/>
    </edge>
    <edge id=":node_00x18_1" function="internal">
        <lane id=":node_00x18_1_0" index="0" disallow="tram rail_urban rail rail_electric ship" speed="13.89" length="2.58" shape="1.65,1796.75 1.75,1797.45 2.05,1797.95 2.55,1798.25 3.25,1798.35"/>
    </edge>
    <edge id=":node_00x19_0" function="internal">
        <lane id=":node_00x19_0_0" index="0" disallow="tram rail_urban rail rail_electric ship" speed="13.89" length="4.82" shape="0.00,1901.65 -1.24,1900.83 -1.65,1900.00 -1.24,1899.17 0.00,1898.35"/>
    </edge>
    <edge id=":node_01x02_0" function="internal">
        <lane id=":node_01x02_0_0" index="0" disallow="tram rail_urban rail rail_electric ship" speed="13.89" length="0.10" shape="100.00,201.65 100.00,201.65"/>
    </edge>
    <edge id=":node_01x02_1" function="internal">
        <lane id=":node_01x02_1_0" index="0" disallow="tram rail_urban rail rail_electric ship" speed="13.89" length="0.10" shape="100.00,198.35 100.00,198.35"/>
    </edge>
    <edge id=":node_01x03_0" function="internal">
        <lane id=":node_01x03_0_0" index="0" disallow="tram rail_urban rail rail_electric ship" speed="13.89" length="2.58" shape="98.35,303.25 98.25,302.55 97.95,302.05 97.45,301.75 96.75,301.65"/>
    </edge>
    <edge id=":node_01x03_1" function="internal">
        <lane id=":node_01x03_1_0" index="0" disallow="tram rail_urban rail rail_electric ship" speed="13.89" length="7.90" shape="96.75,298.35 98.89,298.66 100.43,299.58 101.34,301.11 101.65,303.25"/>
    </edge>
    <edge id=":node_01x04_0" function="internal">
        <lane id=":node_01x04_0_0" index="0" disallow="tram rail_urban rail rail_electric ship" speed="13.89" length="5.00" shape="98.35,404.75 98.16,403.39 97.57,402.42 96.61,401.84 95.25,401.65"/>
    </edge>
    <edge id=":node_01x04_1" function="internal">
        <lane id=":node_01x04_1_0" index="0" disallow="tram rail_urban rail rail_electric ship" speed="13.89" length="9.50" shape="98.35,404.75 98.35,395.25"/>
    </edge>
    <edge id=":node_01x04_2" function="internal">
        <lane id=":node_01x04_2_0" index="0" disallow="tram rail_urban rail rail_electric ship" speed="13.89" length="10.32" shape="98.35,404.75 98.75,401.95 99.95,399.95 101.95,398.75 104.75,398.35"/>
    </edge>
    <edge id=":node_01x04_3" function="internal">
        <lane id=":node_01x04_3_0" index="0" disallow="tram rail_urban rail rail_electric ship" speed="13.89" length="5.00" shape="104.75,401.65 103.39,401.84 102.43,402.42 101.84,403.39 101.65,404.75"/>
    </edge>
    <edge id=":node_01x04_4" function="internal">
        <lane id=":node_01x04_4_0" index="0" disallow="tram rail_urban rail rail_electric ship" speed="13.89" length="9.50" shape="104.75,401.65 95.25,401.65"/>
    </edge>
    <edge id=":node_01x04_5" function="internal">
        <lane id=":node_01x04_5_0" index="0" disallow="tram rail_urban rail rail_electric ship" speed="13.89" length="10.32" shape="104.75,401.65 101.95,401.25 99.95,400.05 98.75,398.05 98.35,395.25"/>
    </edge>
    <edge id=":node_01x04_6" function="internal">
        <lane id=":node_01x04_6_0" index="0" disallow="tram rail_urban rail rail_electric ship" speed="13.89" length="5.00" shape="101.65,395.25 101.84,396.61 102.43,397.58 103.39,398.16 104.75,398.35"/>
    </edge>
    <edge id=":node_01x04_7" function="internal">
        <lane id=":node_01x04_7_0" index="0" disallow="tram rail_urban rail rail_electric ship" speed="13.89" length="9.50" shape="101.65,395.25 101.65,404.75"/>
    </edge>
    <edge id=":node_01x04_8" function="internal">
        <lane id=":node_01x04_8_0" index="0" disallow="tram rail_urban rail rail_electric ship" speed="13.89" length="10.32" shape="101.65,395.25 101.25,398.05 100.05,400.05 98.05,401.25 95.25,401.65"/>
    </edge>
    <edge id=":node_01x04_9" function="internal">
        <lane id=":node_01x04_9_0" index="0" disallow="tram rail_urban rail rail_electric ship" speed="13.89" length="5.00" shape="95.25,398.35 96.61,398.16 97.57,397.58 98.16,396.61 98.35,395.25"/>
    </edge>
    <edge id=":node_01x04_10" function="internal">
        <lane id=":node_01x04_10_0" index="0" disallow="tram rail_urban rail rail_electric ship" speed="13.89" length="9.50" shape="95.25,398.35 104.75,398.35"/>
    </edge>
    <edge id=":node_01x04_11" function="internal">
        <lane id=":node_01x04_11_0" index="0" disallow="tram rail_urban rail rail_electric ship" speed="13.89" length="10.32" shape="95.25,398.35 98.05,398.75 100.05,399.95 101.25,401.95 101.65,404.75"/>
    </edge>
    <edge id=":node_01x05_0" function="internal">
        <lane id=":node_01x05_0_0" index="0" disallow="tram rail_urban rail rail_electric ship" speed="13.89" length="9.50" shape="98.35,504.75 98.35,495.25"/>
    </edge>
    <edge id=":node_01x05_1" function="internal">
        <lane id=":node_01x05_1_0" index="0" disallow="tram rail_urban rail rail_electric ship" speed="13.89" length="10.32" shape="98.35,504.75 98.75,501.95 99.95,499.95 101.95,498.75 104.75,498.35"/>
    </edge>
    <edge id=":node_01x05_2" function="internal">
        <lane id=":node_01x05_2_0" index="0" disallow="tram rail_urban rail rail_electric ship" speed="13.89" length="5.00" shape="104.75,501.65 103.39,501.84 102.43,502.42 101.84,503.39 101.65,504.75"/>
    </edge>
    <edge id=":node_01x05_3" function="internal">
        <lane id=":node_01x05_3_0" index="0" disallow="tram rail_urban rail rail_electric ship" speed="13.89" length="10.32" shape="104.75,501.65 101.95,501.25 99.95,500.05 98.75,498.05 98.35,495.25"/>
    </edge>
    <edge id=":node_01x05_4" function="internal">
        <lane id=":node_01x05_4_0" index="0" disallow="tram rail_urban rail rail_electric ship" speed="13.89" length="5.00" shape="101.65,495.25 101.84,496.61 102.43,497.58 103.39,498.16 104.75,498.35"/>
    </edge>
    <edge id=":node_01x05_5" function="internal">
        <lane id=":node_01x05_5_0" index="0" disallow="tram rail_urban rail rail_electric ship" speed="13.89" length="9.50" shape="101.65,495.25 101.65,504.75"/>
    </edge>
    <edge id=":node_01x06_0" function="internal">
        <lane id=":node_01x06_0_0" index="0" disallow="tram rail_urban rail rail_electric ship" speed="13.89" length="5.00" shape="98.35,604.75 98.16,603.39 97.57,602.42 96.61,601.84 95.25,601.65"/>
    </edge>
    <edge id=":node_01x06_1" function="internal">
        <lane id=":node_01x06_1_0" index="0" disallow="tram rail_urban rail rail_electric ship" speed="13.89" length="9.50" shape="98.35,604.75 98.35,595.25"/>
    </edge>
    <edge id=":node_01x06_2" function="internal">
        <lane id=":node_01x06_2_0" index="0" disallow="tram rail_urban rail rail_electric ship" speed="13.89" length="10.32" shape="98.35,604.75 98.75,601.95 99.95,599.95 101.95,598.75 104.75,598.35"/>
    </edge>
    <edge id=":node_01x06_3" function="internal">
        <lane id=":node_01x06_3_0" index="0" disallow="tram rail_urban rail rail_electric ship" speed="13.89" length="5.00" shape="104.75,601.65 103.39,601.84 102.43,602.42 101.84,603.39 101.65,604.75"/>
    </edge>
    <edge id=":node_01x06_4" function="internal">
        <lane id=":node_01x06_4_0" index="0" disallow="tram rail_urban rail rail_electric ship" speed="13.89" length="9.50" shape="104.75,601.65 95.25,601.65"/>
    </edge>
    <edge id=":node_01x06_5" function="internal">
        <lane id=":node_01x06_5_0" index="0" disallow="tram rail_urban rail rail_electric ship" speed="13.89" length="10.32" shape="104.75,601.65 101.95,601.25 99.95,600.05 98.75,598.05 98.35,595.25"/>
    </edge>
    <edge id=":node_01x06_6" function="internal">
        <lane id=":node_01x06_6_0" index="0" disallow="tram rail_urban rail rail_electric ship" speed="13.89" length="5.00" shape="101.65,595.25 101.84,596.61 102.43,597.58 103.39,598.16 104.75,598.35"/>
    </edge>
    <edge id=":node_01x06_7" function="internal">
        <lane id=":node_01x06_7_0" index="0" disallow="tram rail_urban rail rail_electric ship" speed="13.89" length="9.50" shape="101.65,595.25 101.65,604.75"/>
    </edge>
    <edge id=":node_01x06_8" function="internal">
        <lane id=":node_01x06_8_0" index="0" disallow="tram rail_urban rail rail_electric ship" speed="13.89" length="10.32" shape="101.65,595.25 101.25,598.05 100.05,600.05 98.05,601.25 95.25,601.65"/>
    </edge>
    <edge id=":node_01x06_9" function="internal">
        <lane id=":node_01x06_9_0" index="0" disallow="tram rail_urban rail rail_electric ship" speed="13.89" length="5.00" shape="95.25,598.35 96.61,598.16 97.57,597.58 98.16,596.61 98.35,595.25"/>
    </edge>
    <edge id=":node_01x06_10" function="internal">
        <lane id=":node_01x06_10_0" index="0" disallow="tram rail_urban rail rail_electric ship" speed="13.89" length="9.50" shape="95.25,598.35 104.75,598.35"/>
    </edge>
    <edge id=":node_01x06_11" function="internal">
        <lane id=":node_01x06_11_0" index="0" disallow="tram rail_urban rail rail_electric ship" speed="13.89" length="10.32" shape="95.25,598.35 98.05,598.75 100.05,599.95 101.25,601.95 101.65,604.75"/>
    </edge>
    <edge id=":node_01x07_0" function="internal">
        <lane id=":node_01x07_0_0" index="0" disallow="tram rail_urban rail rail_electric ship" speed="13.89" length="9.50" shape="104.75,701.65 95.25,701.65"/>
    </edge>
    <edge id=":node_01x07_1" function="internal">
        <lane id=":node_01x07_1_0" index="0" disallow="tram rail_urban rail rail_electric ship" speed="13.89" length="10.32" shape="104.75,701.65 101.95,701.25 99.95,700.05 98.75,698.05 98.35,695.25"/>
    </edge>
    <edge id=":node_01x07_2" function="internal">
        <lane id=":node_01x07_2_0" index="0" disallow="tram rail_urban rail rail_electric ship" speed="13.89" length="5.00" shape="101.65,695.25 101.84,696.61 102.43,697.57 103.39,698.16 104.75,698.35"/>
    </edge>
    <edge id=":node_01x07_3" function="internal">
        <lane id=":node_01x07_3_0" index="0" disallow="tram rail_urban rail rail_electric ship" speed="13.89" length="10.32" shape="101.65,695.25 101.25,698.05 100.05,700.05 98.05,701.25 95.25,701.65"/>
    </edge>
    <edge id=":node_01x07_4" function="internal">
        <lane id=":node_01x07_4_0" index="0" disallow="tram rail_urban rail rail_electric ship" speed="13.89" length="5.00" shape="95.25,698.35 96.61,698.16 97.57,697.58 98.16,696.61 98.35,695.25"/>
    </edge>
    <edge id=":node_01x07_5" function="internal">
        <lane id=":node_01x07_5_0" index="0" disallow="tram rail_urban rail rail_electric ship" speed="13.89" length="9.50" shape="95.25,698.35 104.75,698.35"/>
    </edge>
    <edge id=":node_01x08_0" function="internal">
        <lane id=":node_01x08_0_0" index="0" disallow="tram rail_urban rail rail_electric ship" speed="13.89" length="5.00" shape="98.35,804.75 98.16,803.39 97.57,802.43 96.61,801.84 95.25,801.65"/>
    </edge>
    <edge id=":node_01x08_1" function="internal">
        <lane id=":node_01x08_1_0" index="0" disallow="tram rail_urban rail rail_electric ship" speed="13.89" length="10.32" shape="98.35,804.75 98.75,801.95 99.95,799.95 101.95,798.75 104.75,798.35"/>
    </edge>
    <edge id=":node_01x08_2" function="internal">
        <lane id=":node_01x08_2_0" index="0" disallow="tram rail_urban rail rail_electric ship" speed="13.89" length="5.00" shape="104.75,801.65 103.39,801.84 102.43,802.42 101.84,803.39 101.65,804.75"/>
    </edge>
    <edge id=":node_01x08_3" function="internal">
        <lane id=":node_01x08_3_0" index="0" disallow="tram rail_urban rail rail_electric ship" speed="13.89" length="9.50" shape="104.75,801.65 95.25,801.65"/>
    </edge>
    <edge id=":node_01x08_4" function="internal">
        <lane id=":node_01x08_4_0" index="0" disallow="tram rail_urban rail rail_electric ship" speed="13.89" length="9.50" shape="95.25,798.35 104.75,798.35"/>
    </edge>
    <edge id=":node_01x08_5" function="internal">
        <lane id=":node_01x08_5_0" index="0" disallow="tram rail_urban rail rail_electric ship" speed="13.89" length="10.32" shape="95.25,798.35 98.05,798.75 100.05,799.95 101.25,801.95 101.65,804.75"/>
    </edge>
    <edge id=":node_01x09_0" function="internal">
        <lane id=":node_01x09_0_0" index="0" disallow="tram rail_urban rail rail_electric ship" speed="13.89" length="5.00" shape="98.35,904.75 98.16,903.39 97.57,902.43 96.61,901.84 95.25,901.65"/>
    </edge>
    <edge id=":node_01x09_1" function="internal">
        <lane id=":node_01x09_1_0" index="0" disallow="tram rail_urban rail rail_electric ship" speed="13.89" length="9.50" shape="98.35,904.75 98.35,895.25"/>
    </edge>
    <edge id=":node_01x09_2" function="internal">
        <lane id=":node_01x09_2_0" index="0" disallow="tram rail_urban rail rail_electric ship" speed="13.89" length="10.32" shape="98.35,904.75 98.75,901.95 99.95,899.95 101.95,898.75 104.75,898.35"/>
    </edge>
    <edge id=":node_01x09_3" function="internal">
        <lane id=":node_01x09_3_0" index="0" disallow="tram rail_urban rail rail_electric ship" speed="13.89" length="5.00" shape="104.75,901.65 103.39,901.84 102.43,902.42 101.84,903.39 101.65,904.75"/>
    </edge>
    <edge id=":node_01x09_4" function="internal">
        <lane id=":node_01x09_4_0" index="0" disallow="tram rail_urban rail rail_electric ship" speed="13.89" length="9.50" shape="104.75,901.65 95.25,901.65"/>
    </edge>
    <edge id=":node_01x09_5" function="internal">
        <lane id=":node_01x09_5_0" index="0" disallow="tram rail_urban rail rail_electric ship" speed="13.89" length="10.32" shape="104.75,901.65 101.95,901.25 99.95,900.05 98.75,898.05 98.35,895.25"/>
    </edge>
    <edge id=":node_01x09_6" function="internal">
        <lane id=":node_01x09_6_0" index="0" disallow="tram rail_urban rail rail_electric ship" speed="13.89" length="5.00" shape="101.65,895.25 101.84,896.61 102.43,897.57 103.39,898.16 104.75,898.35"/>
    </edge>
    <edge id=":node_01x09_7" function="internal">