<?xml version="1.0" encoding="UTF-8"?>

<!-- generated on 02/15/17 23:05:44 by SUMO netconvert Version 0.27.1
<?xml version="1.0" encoding="UTF-8"?>

<configuration xmlns:xsi="http://www.w3.org/2001/XMLSchema-instance" xsi:noNamespaceSchemaLocation="http://sumo.dlr.de/xsd/netconvertConfiguration.xsd">

    <input>
        <node-files value="C:\Users\zs633\capstone\10_spherical\test_random2\7_displaced\spherical.nod.xml"/>
        <edge-files value="C:\Users\zs633\capstone\10_spherical\test_random2\7_displaced\spherical.edg.xml"/>
        <connection-files value="C:\Users\zs633\capstone\10_spherical\test_random2\4_plain\test.con.xml"/>
        <tllogic-files value="C:\Users\zs633\capstone\10_spherical\test_random2\4_plain\test.tll.xml"/>
    </input>

    <output>
        <output-file value="C:\Users\zs633\capstone\10_spherical\test_random2\9_output_net\spherical.net.xml"/>
    </output>

    <processing>
        <ignore-errors value="true"/>
        <ignore-errors.edge-type value="true"/>
    </processing>

    <report>
        <verbose value="true"/>
        <xml-validation value="never"/>
        <no-warnings value="true"/>
    </report>

</configuration>
-->

<net version="0.27" xmlns:xsi="http://www.w3.org/2001/XMLSchema-instance" xsi:noNamespaceSchemaLocation="http://sumo.dlr.de/xsd/net_file.xsd">

    <location netOffset="25.72,13.20" convBoundary="0.00,0.00,2045.83,2029.53" origBoundary="-25.72,-13.20,2020.11,2016.33" projParameter="!"/>

    <edge id=":node_00x00_0" function="internal">
        <lane id=":node_00x00_0_0" index="0" disallow="tram rail_urban rail rail_electric ship" speed="13.89" length="4.82" shape="24.07,12.82 24.90,11.58 25.72,11.17 26.55,11.58 27.37,12.82"/>
    </edge>
    <edge id=":node_00x01_0" function="internal">
        <lane id=":node_00x01_0_0" index="0" disallow="tram rail_urban rail rail_electric ship" speed="13.89" length="0.48" shape="27.37,108.21 27.35,108.69"/>
    </edge>
    <edge id=":node_00x01_1" function="internal">
        <lane id=":node_00x01_1_0" index="0" disallow="tram rail_urban rail rail_electric ship" speed="13.89" length="0.16" shape="24.06,108.37 24.07,108.21"/>
    </edge>
    <edge id=":node_00x02_0" function="internal">
        <lane id=":node_00x02_0_0" index="0" disallow="tram rail_urban rail rail_electric ship" speed="13.89" length="10.48" shape="14.91,211.86 14.63,208.83 14.53,206.63 14.61,204.44 14.88,201.41"/>
    </edge>
    <edge id=":node_00x02_1" function="internal">
        <lane id=":node_00x02_1_0" index="0" disallow="tram rail_urban rail rail_electric ship" speed="13.89" length="11.17" shape="14.91,211.86 15.06,208.73 16.20,206.56 18.33,205.35 21.45,205.10"/>
    </edge>
    <edge id=":node_00x02_2" function="internal">
        <lane id=":node_00x02_2_0" index="0" disallow="tram rail_urban rail rail_electric ship" speed="13.89" length="5.20" shape="21.24,208.40 19.78,208.51 18.79,209.07 18.26,210.09 18.19,211.54"/>
    </edge>
    <edge id=":node_00x02_3" function="internal">
        <lane id=":node_00x02_3_0" index="0" disallow="tram rail_urban rail rail_electric ship" speed="13.89" length="10.86" shape="21.24,208.40 18.21,207.79 16.14,206.42 15.03,204.30 14.88,201.41"/>
    </edge>
    <edge id=":node_00x02_4" function="internal">
        <lane id=":node_00x02_4_0" index="0" disallow="tram rail_urban rail rail_electric ship" speed="13.89" length="5.41" shape="18.16,201.73 18.25,203.12 18.83,204.14 19.89,204.81 21.45,205.10"/>
    </edge>
    <edge id=":node_00x02_5" function="internal">
        <lane id=":node_00x02_5_0" index="0" disallow="tram rail_urban rail rail_electric ship" speed="13.89" length="9.84" shape="18.16,201.73 17.90,204.64 17.82,206.64 17.92,208.64 18.19,211.54"/>
    </edge>
    <edge id=":node_00x03_0" function="internal">
        <lane id=":node_00x03_0_0" index="0" disallow="tram rail_urban rail rail_electric ship" speed="13.89" length="9.14" shape="24.07,312.18 23.69,303.05"/>
    </edge>
    <edge id=":node_00x03_1" function="internal">
        <lane id=":node_00x03_1_0" index="0" disallow="tram rail_urban rail rail_electric ship" speed="13.89" length="11.10" shape="24.07,312.18 24.51,309.11 25.85,307.06 28.07,306.04 31.18,306.06"/>
    </edge>
    <edge id=":node_00x03_2" function="internal">
        <lane id=":node_00x03_2_0" index="0" disallow="tram rail_urban rail rail_electric ship" speed="13.89" length="5.19" shape="30.69,309.32 29.24,309.31 28.20,309.79 27.58,310.74 27.37,312.18"/>
    </edge>
    <edge id=":node_00x03_3" function="internal">
        <lane id=":node_00x03_3_0" index="0" disallow="tram rail_urban rail rail_electric ship" speed="13.89" length="10.22" shape="30.69,309.32 27.82,308.57 25.70,307.27 24.32,305.43 23.69,303.05"/>
    </edge>
    <edge id=":node_00x03_4" function="internal">
        <lane id=":node_00x03_4_0" index="0" disallow="tram rail_urban rail rail_electric ship" speed="13.89" length="5.80" shape="26.98,302.73 27.34,303.97 28.16,304.93 29.44,305.63 31.18,306.06"/>
    </edge>
    <edge id=":node_00x03_5" function="internal">
        <lane id=":node_00x03_5_0" index="0" disallow="tram rail_urban rail rail_electric ship" speed="13.89" length="9.46" shape="26.98,302.73 27.37,312.18"/>
    </edge>
    <edge id=":node_00x04_0" function="internal">
        <lane id=":node_00x04_0_0" index="0" disallow="tram rail_urban rail rail_electric ship" speed="13.89" length="10.53" shape="24.07,403.69 24.07,393.16"/>
    </edge>
    <edge id=":node_00x04_1" function="internal">
        <lane id=":node_00x04_1_0" index="0" disallow="tram rail_urban rail rail_electric ship" speed="13.89" length="11.84" shape="24.07,403.69 24.51,400.20 25.84,397.85 28.06,396.65 31.16,396.60"/>
    </edge>
    <edge id=":node_00x04_2" function="internal">
        <lane id=":node_00x04_2_0" index="0" disallow="tram rail_urban rail rail_electric ship" speed="13.89" length="5.95" shape="30.69,399.86 29.24,399.92 28.20,400.58 27.58,401.83 27.37,403.69"/>
    </edge>
    <edge id=":node_00x04_3" function="internal">
        <lane id=":node_00x04_3_0" index="0" disallow="tram rail_urban rail rail_electric ship" speed="13.89" length="10.42" shape="30.69,399.86 27.79,399.08 25.72,397.70 24.48,395.73 24.07,393.16"/>
    </edge>
    <edge id=":node_00x04_4" function="internal">
        <lane id=":node_00x04_4_0" index="0" disallow="tram rail_urban rail rail_electric ship" speed="13.89" length="5.65" shape="27.37,393.16 27.61,394.46 28.32,395.46 29.50,396.18 31.16,396.60"/>
    </edge>
    <edge id=":node_00x04_5" function="internal">
        <lane id=":node_00x04_5_0" index="0" disallow="tram rail_urban rail rail_electric ship" speed="13.89" length="10.53" shape="27.37,393.16 27.37,403.69"/>
    </edge>
    <edge id=":node_00x05_0" function="internal">
        <lane id=":node_00x05_0_0" index="0" disallow="tram rail_urban rail rail_electric ship" speed="13.89" length="0.10" shape="27.37,524.32 27.37,524.41"/>
    </edge>
    <edge id=":node_00x05_1" function="internal">
        <lane id=":node_00x05_1_0" index="0" disallow="tram rail_urban rail rail_electric ship" speed="13.89" length="0.10" shape="24.07,524.22 24.07,524.32"/>
    </edge>
    <edge id=":node_00x06_0" function="internal">
        <lane id=":node_00x06_0_0" index="0" disallow="tram rail_urban rail rail_electric ship" speed="13.89" length="10.14" shape="18.02,638.83 18.22,628.70"/>
    </edge>
    <edge id=":node_00x06_1" function="internal">
        <lane id=":node_00x06_1_0" index="0" disallow="tram rail_urban rail rail_electric ship" speed="13.89" length="10.82" shape="18.02,638.83 18.38,636.33 19.65,634.30 21.81,632.75 24.86,631.68"/>
    </edge>
    <edge id=":node_00x06_2" function="internal">
        <lane id=":node_00x06_2_0" index="0" disallow="tram rail_urban rail rail_electric ship" speed="13.89" length="6.27" shape="25.63,634.89 23.71,635.52 22.35,636.37 21.55,637.44 21.32,638.73"/>
    </edge>
    <edge id=":node_00x06_3" function="internal">
        <lane id=":node_00x06_3_0" index="0" disallow="tram rail_urban rail rail_electric ship" speed="13.89" length="11.93" shape="25.63,634.89 22.22,635.20 19.85,634.27 18.52,632.11 18.22,628.70"/>
    </edge>
    <edge id=":node_00x06_4" function="internal">
        <lane id=":node_00x06_4_0" index="0" disallow="tram rail_urban rail rail_electric ship" speed="13.89" length="5.39" shape="21.52,628.88 21.65,630.42 22.25,631.40 23.32,631.82 24.86,631.68"/>
    </edge>
    <edge id=":node_00x06_5" function="internal">
        <lane id=":node_00x06_5_0" index="0" disallow="tram rail_urban rail rail_electric ship" speed="13.89" length="9.86" shape="21.52,628.88 21.32,638.73"/>
    </edge>
    <edge id=":node_00x07_0" function="internal">
        <lane id=":node_00x07_0_0" index="0" disallow="tram rail_urban rail rail_electric ship" speed="13.89" length="8.96" shape="26.02,714.02 23.51,714.18 21.68,713.46 20.55,711.85 20.12,709.37"/>
    </edge>
    <edge id=":node_00x07_1" function="internal">
        <lane id=":node_00x07_1_0" index="0" disallow="tram rail_urban rail rail_electric ship" speed="13.89" length="2.93" shape="23.42,709.27 23.56,710.08 23.93,710.61 24.52,710.84 25.35,710.79"/>
    </edge>
    <edge id=":node_00x08_0" function="internal">
        <lane id=":node_00x08_0_0" index="0" disallow="tram rail_urban rail rail_electric ship" speed="13.89" length="4.82" shape="0.26,816.29 -1.09,815.67 -1.63,814.92 -1.35,814.04 -0.26,813.03"/>
    </edge>
    <edge id=":node_00x09_0" function="internal">
        <lane id=":node_00x09_0_0" index="0" disallow="tram rail_urban rail rail_electric ship" speed="13.89" length="4.82" shape="3.89,910.76 2.90,909.66 2.70,908.76 3.31,908.06 4.71,907.57"/>
    </edge>
    <edge id=":node_00x10_0" function="internal">
        <lane id=":node_00x10_0_0" index="0" disallow="tram rail_urban rail rail_electric ship" speed="13.89" length="2.56" shape="28.76,1015.16 28.06,1015.19 27.53,1015.44 27.18,1015.90 27.01,1016.58"/>
    </edge>
    <edge id=":node_00x10_1" function="internal">
        <lane id=":node_00x10_1_0" index="0" disallow="tram rail_urban rail rail_electric ship" speed="13.89" length="7.84" shape="23.73,1016.21 24.26,1014.14 25.33,1012.72 26.94,1011.97 29.08,1011.88"/>
    </edge>
    <edge id=":node_00x11_0" function="internal">
        <lane id=":node_00x11_0_0" index="0" disallow="tram rail_urban rail rail_electric ship" speed="13.89" length="8.90" shape="18.16,1118.67 15.67,1118.45 13.99,1117.47 13.10,1115.73 13.02,1113.24"/>
    </edge>
    <edge id=":node_00x11_1" function="internal">
        <lane id=":node_00x11_1_0" index="0" disallow="tram rail_urban rail rail_electric ship" speed="13.89" length="2.90" shape="16.30,1113.60 16.33,1114.41 16.62,1114.98 17.17,1115.30 17.98,1115.37"/>
    </edge>
    <edge id=":node_00x12_0" function="internal">
        <lane id=":node_00x12_0_0" index="0" disallow="tram rail_urban rail rail_electric ship" speed="13.89" length="4.82" shape="22.61,1183.85 23.49,1182.66 24.34,1182.28 25.14,1182.73 25.91,1184.01"/>
    </edge>
    <edge id=":node_00x13_0" function="internal">
        <lane id=":node_00x13_0_0" index="0" disallow="tram rail_urban rail rail_electric ship" speed="13.89" length="9.79" shape="17.69,1295.48 17.88,1285.69"/>
    </edge>
    <edge id=":node_00x13_1" function="internal">
        <lane id=":node_00x13_1_0" index="0" disallow="tram rail_urban rail rail_electric ship" speed="13.89" length="11.08" shape="17.69,1295.48 18.12,1292.41 19.45,1290.36 21.66,1289.33 24.76,1289.33"/>
    </edge>
    <edge id=":node_00x13_2" function="internal">
        <lane id=":node_00x13_2_0" index="0" disallow="tram rail_urban rail rail_electric ship" speed="13.89" length="5.18" shape="24.29,1292.59 22.85,1292.60 21.81,1293.08 21.19,1294.04 20.99,1295.47"/>
    </edge>
    <edge id=":node_00x13_3" function="internal">
        <lane id=":node_00x13_3_0" index="0" disallow="tram rail_urban rail rail_electric ship" speed="13.89" length="10.52" shape="24.29,1292.59 21.39,1291.81 19.35,1290.40 18.18,1288.36 17.88,1285.69"/>
    </edge>
    <edge id=":node_00x13_4" function="internal">
        <lane id=":node_00x13_4_0" index="0" disallow="tram rail_urban rail rail_electric ship" speed="13.89" length="5.56" shape="21.18,1285.85 21.35,1287.17 22.01,1288.19 23.14,1288.91 24.76,1289.33"/>
    </edge>
    <edge id=":node_00x13_5" function="internal">
        <lane id=":node_00x13_5_0" index="0" disallow="tram rail_urban rail rail_electric ship" speed="13.89" length="9.63" shape="21.18,1285.85 20.99,1295.47"/>
    </edge>
    <edge id=":node_00x14_0" function="internal">
        <lane id=":node_00x14_0_0" index="0" disallow="tram rail_urban rail rail_electric ship" speed="13.89" length="6.49" shape="25.80,1442.37 23.82,1443.12 22.38,1444.03 21.49,1445.10 21.15,1446.33"/>
    </edge>
    <edge id=":node_00x14_1" function="internal">
        <lane id=":node_00x14_1_0" index="0" disallow="tram rail_urban rail rail_electric ship" speed="13.89" length="11.93" shape="25.80,1442.37 22.42,1442.88 20.00,1442.09 18.54,1440.00 18.05,1436.62"/>
    </edge>
    <edge id=":node_00x14_2" function="internal">
        <lane id=":node_00x14_2_0" index="0" disallow="tram rail_urban rail rail_electric ship" speed="13.89" length="5.39" shape="21.35,1436.61 21.57,1438.14 22.23,1439.08 23.32,1439.44 24.85,1439.21"/>
    </edge>
    <edge id=":node_00x14_3" function="internal">
        <lane id=":node_00x14_3_0" index="0" disallow="tram rail_urban rail rail_electric ship" speed="13.89" length="9.73" shape="21.35,1436.61 21.15,1446.33"/>
    </edge>
    <edge id=":node_00x14_4" function="internal">
        <lane id=":node_00x14_4_0" index="0" disallow="tram rail_urban rail rail_electric ship" speed="13.89" length="9.53" shape="17.85,1446.14 18.05,1436.62"/>
    </edge>
    <edge id=":node_00x14_5" function="internal">
        <lane id=":node_00x14_5_0" index="0" disallow="tram rail_urban rail rail_electric ship" speed="13.89" length="10.53" shape="17.85,1446.14 18.39,1443.86 19.74,1441.95 21.89,1440.39 24.85,1439.21"/>
    </edge>
    <edge id=":node_00x15_0" function="internal">
        <lane id=":node_00x15_0_0" index="0" disallow="tram rail_urban rail rail_electric ship" speed="13.89" length="4.82" shape="15.98,1536.27 15.08,1537.46 14.23,1537.82 13.43,1537.36 12.68,1536.08"/>
    </edge>
    <edge id=":node_00x16_0" function="internal">
        <lane id=":node_00x16_0_0" index="0" disallow="tram rail_urban rail rail_electric ship" speed="13.89" length="4.82" shape="19.74,1591.79 20.51,1590.52 21.32,1590.07 22.16,1590.45 23.04,1591.65"/>
    </edge>
    <edge id=":node_00x17_0" function="internal">
        <lane id=":node_00x17_0_0" index="0" disallow="tram rail_urban rail rail_electric ship" speed="13.89" length="5.08" shape="30.49,1701.33 29.09,1701.38 28.07,1701.87 27.43,1702.81 27.17,1704.19"/>
    </edge>
    <edge id=":node_00x17_1" function="internal">
        <lane id=":node_00x17_1_0" index="0" disallow="tram rail_urban rail rail_electric ship" speed="13.89" length="10.17" shape="30.49,1701.33 27.69,1700.67 25.66,1699.38 24.40,1697.47 23.90,1694.92"/>
    </edge>
    <edge id=":node_00x17_2" function="internal">
        <lane id=":node_00x17_2_0" index="0" disallow="tram rail_urban rail rail_electric ship" speed="13.89" length="5.40" shape="27.20,1694.79 27.47,1696.07 28.17,1697.04 29.29,1697.70 30.85,1698.05"/>
    </edge>
    <edge id=":node_00x17_3" function="internal">
        <lane id=":node_00x17_3_0" index="0" disallow="tram rail_urban rail rail_electric ship" speed="13.89" length="9.41" shape="27.20,1694.79 27.17,1704.19"/>
    </edge>
    <edge id=":node_00x17_4" function="internal">
        <lane id=":node_00x17_4_0" index="0" disallow="tram rail_urban rail rail_electric ship" speed="13.89" length="9.14" shape="23.88,1704.06 23.90,1694.92"/>
    </edge>
    <edge id=":node_00x17_5" function="internal">
        <lane id=":node_00x17_5_0" index="0" disallow="tram rail_urban rail rail_electric ship" speed="13.89" length="10.67" shape="23.88,1704.06 24.41,1701.16 25.75,1699.19 27.90,1698.15 30.85,1698.05"/>
    </edge>
    <edge id=":node_00x18_0" function="internal">
        <lane id=":node_00x18_0_0" index="0" disallow="tram rail_urban rail rail_electric ship" speed="13.89" length="10.18" shape="25.34,1834.81 22.44,1835.32 20.40,1834.68 19.23,1832.89 18.93,1829.95"/>
    </edge>
    <edge id=":node_00x18_1" function="internal">
        <lane id=":node_00x18_1_0" index="0" disallow="tram rail_urban rail rail_electric ship" speed="13.89" length="3.32" shape="22.23,1830.08 22.33,1831.04 22.71,1831.63 23.38,1831.84 24.32,1831.67"/>
    </edge>
    <edge id=":node_00x19_0" function="internal">
        <lane id=":node_00x19_0_0" index="0" disallow="tram rail_urban rail rail_electric ship" speed="13.89" length="4.82" shape="10.73,1928.87 9.36,1928.28 8.80,1927.55 9.06,1926.66 10.12,1925.62"/>
    </edge>
    <edge id=":node_01x02_0" function="internal">
        <lane id=":node_01x02_0_0" index="0" disallow="tram rail_urban rail rail_electric ship" speed="13.89" length="0.10" shape="121.99,214.84 122.03,214.85"/>
    </edge>
    <edge id=":node_01x02_1" function="internal">
        <lane id=":node_01x02_1_0" index="0" disallow="tram rail_urban rail rail_electric ship" speed="13.89" length="0.10" shape="122.27,211.55 122.29,211.56"/>
    </edge>
    <edge id=":node_01x03_0" function="internal">
        <lane id=":node_01x03_0_0" index="0" disallow="tram rail_urban rail rail_electric ship" speed="13.89" length="2.31" shape="131.25,325.68 131.16,325.06 130.90,324.60 130.48,324.28 129.88,324.10"/>
    </edge>
    <edge id=":node_01x03_1" function="internal">
        <lane id=":node_01x03_1_0" index="0" disallow="tram rail_urban rail rail_electric ship" speed="13.89" length="7.07" shape="130.37,320.84 132.19,321.37 133.50,322.35 134.28,323.79 134.55,325.67"/>
    </edge>
    <edge id=":node_01x04_0" function="internal">
        <lane id=":node_01x04_0_0" index="0" disallow="tram rail_urban rail rail_electric ship" speed="13.89" length="6.71" shape="132.15,418.38 131.70,416.71 130.82,415.44 129.49,414.56 127.72,414.07"/>
    </edge>
    <edge id=":node_01x04_1" function="internal">
        <lane id=":node_01x04_1_0" index="0" disallow="tram rail_urban rail rail_electric ship" speed="13.89" length="10.47" shape="132.15,418.38 131.51,407.93"/>
    </edge>
    <edge id=":node_01x04_2" function="internal">
        <lane id=":node_01x04_2_0" index="0" disallow="tram rail_urban rail rail_electric ship" speed="13.89" length="10.72" shape="132.15,418.38 132.21,415.41 133.23,413.24 135.19,411.88 138.11,411.33"/>
    </edge>
    <edge id=":node_01x04_3" function="internal">
        <lane id=":node_01x04_3_0" index="0" disallow="tram rail_urban rail rail_electric ship" speed="13.89" length="5.10" shape="138.26,414.62 136.87,414.89 135.94,415.53 135.46,416.56 135.43,417.97"/>
    </edge>
    <edge id=":node_01x04_4" function="internal">
        <lane id=":node_01x04_4_0" index="0" disallow="tram rail_urban rail rail_electric ship" speed="13.89" length="10.58" shape="138.26,414.62 135.20,414.73 132.97,414.70 130.75,414.49 127.72,414.07"/>
    </edge>
    <edge id=":node_01x04_5" function="internal">
        <lane id=":node_01x04_5_0" index="0" disallow="tram rail_urban rail rail_electric ship" speed="13.89" length="10.94" shape="138.26,414.62 135.31,414.32 133.21,413.10 131.94,410.97 131.51,407.93"/>
    </edge>
    <edge id=":node_01x04_6" function="internal">
        <lane id=":node_01x04_6_0" index="0" disallow="tram rail_urban rail rail_electric ship" speed="13.89" length="5.46" shape="134.81,407.92 135.02,409.47 135.64,410.55 136.67,411.17 138.11,411.33"/>
    </edge>
    <edge id=":node_01x04_7" function="internal">
        <lane id=":node_01x04_7_0" index="0" disallow="tram rail_urban rail rail_electric ship" speed="13.89" length="10.07" shape="134.81,407.92 135.43,417.97"/>
    </edge>
    <edge id=":node_01x04_8" function="internal">
        <lane id=":node_01x04_8_0" index="0" disallow="tram rail_urban rail rail_electric ship" speed="13.89" length="11.11" shape="134.81,407.92 134.37,411.00 133.05,413.05 130.83,414.07 127.72,414.07"/>
    </edge>
    <edge id=":node_01x04_9" function="internal">
        <lane id=":node_01x04_9_0" index="0" disallow="tram rail_urban rail rail_electric ship" speed="13.89" length="5.19" shape="128.20,410.80 129.65,410.81 130.69,410.33 131.31,409.37 131.51,407.93"/>
    </edge>
    <edge id=":node_01x04_10" function="internal">
        <lane id=":node_01x04_10_0" index="0" disallow="tram rail_urban rail rail_electric ship" speed="13.89" length="9.95" shape="128.20,410.80 131.12,411.22 133.14,411.42 135.16,411.44 138.11,411.33"/>
    </edge>
    <edge id=":node_01x04_11" function="internal">
        <lane id=":node_01x04_11_0" index="0" disallow="tram rail_urban rail rail_electric ship" speed="13.89" length="11.05" shape="128.20,410.80 131.07,411.61 133.24,413.07 134.69,415.19 135.43,417.97"/>
    </edge>
    <edge id=":node_01x05_0" function="internal">
        <lane id=":node_01x05_0_0" index="0" disallow="tram rail_urban rail rail_electric ship" speed="13.89" length="4.95" shape="149.12,509.29 147.77,509.30 146.73,509.72 145.99,510.58 145.56,511.85"/>
    </edge>
    <edge id=":node_01x05_1" function="internal">
        <lane id=":node_01x05_1_0" index="0" disallow="tram rail_urban rail rail_electric ship" speed="13.89" length="9.59" shape="149.12,509.29 146.53,508.61 144.59,507.38 143.30,505.60 142.66,503.26"/>
    </edge>
    <edge id=":node_01x05_2" function="internal">
        <lane id=":node_01x05_2_0" index="0" disallow="tram rail_urban rail rail_electric ship" speed="13.89" length="5.23" shape="145.93,502.86 146.28,504.07 147.01,505.00 148.11,505.65 149.57,506.03"/>
    </edge>
    <edge id=":node_01x05_3" function="internal">
        <lane id=":node_01x05_3_0" index="0" disallow="tram rail_urban rail rail_electric ship" speed="13.89" length="9.07" shape="145.93,502.86 146.22,505.53 146.26,507.37 146.05,509.21 145.56,511.85"/>
    </edge>
    <edge id=":node_01x05_4" function="internal">
        <lane id=":node_01x05_4_0" index="0" disallow="tram rail_urban rail rail_electric ship" speed="13.89" length="8.05" shape="142.32,511.25 142.75,508.90 142.95,507.27 142.91,505.63 142.66,503.26"/>
    </edge>
    <edge id=":node_01x05_5" function="internal">
        <lane id=":node_01x05_5_0" index="0" disallow="tram rail_urban rail rail_electric ship" speed="13.89" length="10.09" shape="142.32,511.25 143.20,508.64 144.70,506.90 146.82,506.03 149.57,506.03"/>
    </edge>
    <edge id=":node_01x06_0" function="internal">
        <lane id=":node_01x06_0_0" index="0" disallow="tram rail_urban rail rail_electric ship" speed="13.89" length="7.58" shape="131.38,610.76 129.51,611.14 128.09,612.09 127.12,613.61 126.60,615.70"/>
    </edge>
    <edge id=":node_01x06_1" function="internal">
        <lane id=":node_01x06_1_0" index="0" disallow="tram rail_urban rail rail_electric ship" speed="13.89" length="11.44" shape="131.38,610.76 128.20,610.95 125.69,611.23 123.20,611.69 120.09,612.40"/>
    </edge>
    <edge id=":node_01x06_2" function="internal">
        <lane id=":node_01x06_2_0" index="0" disallow="tram rail_urban rail rail_electric ship" speed="13.89" length="11.56" shape="131.38,610.76 128.12,610.44 125.99,609.13 124.99,606.84 125.12,603.56"/>
    </edge>
    <edge id=":node_01x06_3" function="internal">
        <lane id=":node_01x06_3_0" index="0" disallow="tram rail_urban rail rail_electric ship" speed="13.89" length="5.30" shape="128.37,604.17 128.30,605.67 128.76,606.72 129.74,607.32 131.24,607.47"/>
    </edge>
    <edge id=":node_01x06_4" function="internal">
        <lane id=":node_01x06_4_0" index="0" disallow="tram rail_urban rail rail_electric ship" speed="13.89" length="11.67" shape="128.37,604.17 126.60,615.70"/>
    </edge>
    <edge id=":node_01x06_5" function="internal">
        <lane id=":node_01x06_5_0" index="0" disallow="tram rail_urban rail rail_electric ship" speed="13.89" length="12.41" shape="128.37,604.17 127.39,607.14 125.69,609.50 123.25,611.26 120.09,612.40"/>
    </edge>
    <edge id=":node_01x06_6" function="internal">
        <lane id=":node_01x06_6_0" index="0" disallow="tram rail_urban rail rail_electric ship" speed="13.89" length="8.58" shape="119.33,609.19 121.55,608.40 123.26,607.19 124.45,605.58 125.12,603.56"/>
    </edge>
    <edge id=":node_01x06_7" function="internal">
        <lane id=":node_01x06_7_0" index="0" disallow="tram rail_urban rail rail_electric ship" speed="13.89" length="12.06" shape="119.33,609.19 122.54,608.46 125.23,607.98 127.95,607.67 131.24,607.47"/>
    </edge>
    <edge id=":node_01x06_8" function="internal">
        <lane id=":node_01x06_8_0" index="0" disallow="tram rail_urban rail rail_electric ship" speed="13.89" length="12.37" shape="119.33,609.19 122.90,608.85 125.31,609.83 126.54,612.11 126.60,615.70"/>
    </edge>
    <edge id=":node_01x06_9" function="internal">
        <lane id=":node_01x06_9_0" index="0" disallow="tram rail_urban rail rail_electric ship" speed="13.89" length="5.50" shape="123.32,615.30 123.30,613.70 122.75,612.68 121.68,612.25 120.09,612.40"/>
    </edge>
    <edge id=":node_01x06_10" function="internal">
        <lane id=":node_01x06_10_0" index="0" disallow="tram rail_urban rail rail_electric ship" speed="13.89" length="11.87" shape="123.32,615.30 125.12,603.56"/>
    </edge>
    <edge id=":node_01x06_11" function="internal">
        <lane id=":node_01x06_11_0" index="0" disallow="tram rail_urban rail rail_electric ship" speed="13.89" length="12.27" shape="123.32,615.30 124.17,611.99 125.77,609.58 128.12,608.07 131.24,607.47"/>
    </edge>
    <edge id=":node_01x07_0" function="internal">
        <lane id=":node_01x07_0_0" index="0" disallow="tram rail_urban rail rail_electric ship" speed="13.89" length="8.06" shape="119.88,695.81 117.50,695.55 115.86,695.46 114.23,695.61 111.88,696.05"/>
    </edge>
    <edge id=":node_01x07_1" function="internal">
        <lane id=":node_01x07_1_0" index="0" disallow="tram rail_urban rail rail_electric ship" speed="13.89" length="10.40" shape="119.88,695.81 117.11,695.11 115.25,693.68 114.29,691.54 114.24,688.69"/>
    </edge>
    <edge id=":node_01x07_2" function="internal">
        <lane id=":node_01x07_2_0" index="0" disallow="tram rail_urban rail rail_electric ship" speed="13.89" length="5.02" shape="117.51,689.09 117.54,690.47 118.00,691.50 118.90,692.19 120.24,692.53"/>
    </edge>
    <edge id=":node_01x07_3" function="internal">
        <lane id=":node_01x07_3_0" index="0" disallow="tram rail_urban rail rail_electric ship" speed="13.89" length="9.62" shape="117.51,689.09 116.89,691.75 115.74,693.80 114.07,695.23 111.88,696.05"/>
    </edge>
    <edge id=":node_01x07_4" function="internal">
        <lane id=":node_01x07_4_0" index="0" disallow="tram rail_urban rail rail_electric ship" speed="13.89" length="5.50" shape="111.21,692.82 112.37,692.36 113.26,691.52 113.88,690.29 114.24,688.69"/>
    </edge>
    <edge id=":node_01x07_5" function="internal">
        <lane id=":node_01x07_5_0" index="0" disallow="tram rail_urban rail rail_electric ship" speed="13.89" length="9.10" shape="111.21,692.82 113.85,692.32 115.70,692.15 117.55,692.24 120.24,692.53"/>
    </edge>
    <edge id=":node_01x08_0" function="internal">
        <lane id=":node_01x08_0_0" index="0" disallow="tram rail_urban rail rail_electric ship" speed="13.89" length="5.44" shape="115.88,801.22 115.63,799.65 114.98,798.60 113.94,798.08 112.49,798.08"/>
    </edge>
    <edge id=":node_01x08_1" function="internal">
        <lane id=":node_01x08_1_0" index="0" disallow="tram rail_urban rail rail_electric ship" speed="13.89" length="11.52" shape="115.88,801.22 116.26,797.98 117.60,795.87 119.90,794.91 123.16,795.08"/>
    </edge>
    <edge id=":node_01x08_2" function="internal">
        <lane id=":node_01x08_2_0" index="0" disallow="tram rail_urban rail rail_electric ship" speed="13.89" length="5.29" shape="122.52,798.32 121.02,798.24 119.97,798.68 119.35,799.65 119.18,801.14"/>
    </edge>
    <edge id=":node_01x08_3" function="internal">
        <lane id=":node_01x08_3_0" index="0" disallow="tram rail_urban rail rail_electric ship" speed="13.89" length="10.13" shape="122.52,798.32 119.58,797.76 117.52,797.53 115.45,797.64 112.49,798.08"/>
    </edge>
    <edge id=":node_01x08_4" function="internal">
        <lane id=":node_01x08_4_0" index="0" disallow="tram rail_urban rail rail_electric ship" speed="13.89" length="11.29" shape="111.97,794.82 115.11,794.39 117.58,794.29 120.04,794.52 123.16,795.08"/>
    </edge>
    <edge id=":node_01x08_5" function="internal">
        <lane id=":node_01x08_5_0" index="0" disallow="tram rail_urban rail rail_electric ship" speed="13.89" length="11.30" shape="111.97,794.82 115.05,794.79 117.28,795.83 118.65,797.95 119.18,801.14"/>
    </edge>
    <edge id=":node_01x09_0" function="internal">
        <lane id=":node_01x09_0_0" index="0" disallow="tram rail_urban rail rail_electric ship" speed="13.89" length="6.76" shape="119.77,943.38 119.42,941.93 118.53,940.73 117.12,939.78 115.16,939.09"/>
    </edge>
    <edge id=":node_01x09_1" function="internal">
        <lane id=":node_01x09_1_0" index="0" disallow="tram rail_urban rail rail_electric ship" speed="13.89" length="10.22" shape="119.77,943.38 119.39,933.17"/>
    </edge>
    <edge id=":node_01x09_2" function="internal">