<?xml version="1.0" encoding="UTF-8"?>

<!-- generated on 11/30/16 02:37:30 by SUMO netconvert Version 0.27.1
<?xml version="1.0" encoding="UTF-8"?>

<configuration xmlns:xsi="http://www.w3.org/2001/XMLSchema-instance" xsi:noNamespaceSchemaLocation="http://sumo.dlr.de/xsd/netconvertConfiguration.xsd">

    <input>
        <node-files value="C:\Users\zs633\Capstone\4_gravity_new\test_2\7_displaced\gravity.nod.xml"/>
        <edge-files value="C:\Users\zs633\Capstone\4_gravity_new\test_2\7_displaced\gravity.edg.xml"/>
        <connection-files value="C:\Users\zs633\Capstone\4_gravity_new\test_2\4_plain\test.con.xml"/>
        <tllogic-files value="C:\Users\zs633\Capstone\4_gravity_new\test_2\4_plain\test.tll.xml"/>
    </input>

    <output>
        <output-file value="C:\Users\zs633\Capstone\4_gravity_new\test_2\9_output_net\gravity.net.xml"/>
    </output>

    <processing>
        <ignore-errors value="true"/>
        <ignore-errors.edge-type value="true"/>
    </processing>

    <report>
        <verbose value="true"/>
        <xml-validation value="never"/>
        <no-warnings value="true"/>
    </report>

</configuration>
-->

<net version="0.27" xmlns:xsi="http://www.w3.org/2001/XMLSchema-instance" xsi:noNamespaceSchemaLocation="http://sumo.dlr.de/xsd/net_file.xsd">

    <location netOffset="0.02,0.02" convBoundary="0.00,0.00,2000.05,2000.05" origBoundary="-0.02,-0.02,2000.02,2000.02" projParameter="!"/>

    <edge id=":node_00x00_0" function="internal">
        <lane id=":node_00x00_0_0" index="0" disallow="tram rail_urban rail rail_electric ship" speed="13.89" length="7.90" shape="-1.63,3.27 -1.33,1.12 -0.41,-0.41 1.12,-1.33 3.27,-1.63"/>
    </edge>
    <edge id=":node_00x00_1" function="internal">
        <lane id=":node_00x00_1_0" index="0" disallow="tram rail_urban rail rail_electric ship" speed="13.89" length="2.58" shape="3.27,1.67 2.57,1.77 2.07,2.07 1.77,2.57 1.67,3.27"/>
    </edge>
    <edge id=":node_00x01_0" function="internal">
        <lane id=":node_00x01_0_0" index="0" disallow="tram rail_urban rail rail_electric ship" speed="13.89" length="9.50" shape="-1.63,104.77 -1.63,95.27"/>
    </edge>
    <edge id=":node_00x01_1" function="internal">
        <lane id=":node_00x01_1_0" index="0" disallow="tram rail_urban rail rail_electric ship" speed="13.89" length="5.28" shape="-1.63,104.77 -1.23,101.97 -0.03,99.97 0.07,99.91"/>
    </edge>
    <edge id=":node_00x01_6" function="internal">
        <lane id=":node_00x01_6_0" index="0" speed="13.89" length="5.04" shape="0.07,99.91 1.97,98.77 4.77,98.37"/>
    </edge>
    <edge id=":node_00x01_2" function="internal">
        <lane id=":node_00x01_2_0" index="0" disallow="tram rail_urban rail rail_electric ship" speed="13.89" length="5.00" shape="4.77,101.67 3.41,101.86 2.44,102.44 1.86,103.41 1.67,104.77"/>
    </edge>
    <edge id=":node_00x01_3" function="internal">
        <lane id=":node_00x01_3_0" index="0" disallow="tram rail_urban rail rail_electric ship" speed="13.89" length="10.32" shape="4.77,101.67 1.97,101.27 -0.03,100.07 -1.23,98.07 -1.63,95.27"/>
    </edge>
    <edge id=":node_00x01_4" function="internal">
        <lane id=":node_00x01_4_0" index="0" disallow="tram rail_urban rail rail_electric ship" speed="13.89" length="5.00" shape="1.67,95.27 1.86,96.62 2.44,97.59 3.41,98.17 4.77,98.37"/>
    </edge>
    <edge id=":node_00x01_5" function="internal">
        <lane id=":node_00x01_5_0" index="0" disallow="tram rail_urban rail rail_electric ship" speed="13.89" length="9.50" shape="1.67,95.27 1.67,104.77"/>
    </edge>
    <edge id=":node_00x02_0" function="internal">
        <lane id=":node_00x02_0_0" index="0" disallow="tram rail_urban rail rail_electric ship" speed="13.89" length="9.50" shape="-1.63,204.77 -1.63,195.27"/>
    </edge>
    <edge id=":node_00x02_1" function="internal">
        <lane id=":node_00x02_1_0" index="0" disallow="tram rail_urban rail rail_electric ship" speed="13.89" length="5.28" shape="-1.63,204.77 -1.23,201.97 -0.03,199.97 0.07,199.91"/>
    </edge>
    <edge id=":node_00x02_6" function="internal">
        <lane id=":node_00x02_6_0" index="0" speed="13.89" length="5.04" shape="0.07,199.91 1.97,198.77 4.77,198.37"/>
    </edge>
    <edge id=":node_00x02_2" function="internal">
        <lane id=":node_00x02_2_0" index="0" disallow="tram rail_urban rail rail_electric ship" speed="13.89" length="5.00" shape="4.77,201.67 3.41,201.86 2.44,202.44 1.86,203.41 1.67,204.77"/>
    </edge>
    <edge id=":node_00x02_3" function="internal">
        <lane id=":node_00x02_3_0" index="0" disallow="tram rail_urban rail rail_electric ship" speed="13.89" length="10.32" shape="4.77,201.67 1.97,201.27 -0.03,200.07 -1.23,198.07 -1.63,195.27"/>
    </edge>
    <edge id=":node_00x02_4" function="internal">
        <lane id=":node_00x02_4_0" index="0" disallow="tram rail_urban rail rail_electric ship" speed="13.89" length="5.00" shape="1.67,195.27 1.86,196.62 2.44,197.59 3.41,198.17 4.77,198.37"/>
    </edge>
    <edge id=":node_00x02_5" function="internal">
        <lane id=":node_00x02_5_0" index="0" disallow="tram rail_urban rail rail_electric ship" speed="13.89" length="9.50" shape="1.67,195.27 1.67,204.77"/>
    </edge>
    <edge id=":node_00x03_0" function="internal">
        <lane id=":node_00x03_0_0" index="0" disallow="tram rail_urban rail rail_electric ship" speed="13.89" length="9.50" shape="-1.63,304.77 -1.63,295.27"/>
    </edge>
    <edge id=":node_00x03_1" function="internal">
        <lane id=":node_00x03_1_0" index="0" disallow="tram rail_urban rail rail_electric ship" speed="13.89" length="5.28" shape="-1.63,304.77 -1.23,301.97 -0.03,299.97 0.07,299.91"/>
    </edge>
    <edge id=":node_00x03_6" function="internal">
        <lane id=":node_00x03_6_0" index="0" speed="13.89" length="5.04" shape="0.07,299.91 1.97,298.77 4.77,298.37"/>
    </edge>
    <edge id=":node_00x03_2" function="internal">
        <lane id=":node_00x03_2_0" index="0" disallow="tram rail_urban rail rail_electric ship" speed="13.89" length="5.00" shape="4.77,301.67 3.41,301.86 2.44,302.44 1.86,303.41 1.67,304.77"/>
    </edge>
    <edge id=":node_00x03_3" function="internal">
        <lane id=":node_00x03_3_0" index="0" disallow="tram rail_urban rail rail_electric ship" speed="13.89" length="10.32" shape="4.77,301.67 1.97,301.27 -0.03,300.07 -1.23,298.07 -1.63,295.27"/>
    </edge>
    <edge id=":node_00x03_4" function="internal">
        <lane id=":node_00x03_4_0" index="0" disallow="tram rail_urban rail rail_electric ship" speed="13.89" length="5.00" shape="1.67,295.27 1.86,296.62 2.44,297.59 3.41,298.17 4.77,298.37"/>
    </edge>
    <edge id=":node_00x03_5" function="internal">
        <lane id=":node_00x03_5_0" index="0" disallow="tram rail_urban rail rail_electric ship" speed="13.89" length="9.50" shape="1.67,295.27 1.67,304.77"/>
    </edge>
    <edge id=":node_00x04_0" function="internal">
        <lane id=":node_00x04_0_0" index="0" disallow="tram rail_urban rail rail_electric ship" speed="13.89" length="9.50" shape="-1.64,404.77 -1.64,395.27"/>
    </edge>
    <edge id=":node_00x04_1" function="internal">
        <lane id=":node_00x04_1_0" index="0" disallow="tram rail_urban rail rail_electric ship" speed="13.89" length="5.28" shape="-1.64,404.77 -1.24,401.97 -0.04,399.97 0.06,399.91"/>
    </edge>
    <edge id=":node_00x04_6" function="internal">
        <lane id=":node_00x04_6_0" index="0" speed="13.89" length="5.04" shape="0.06,399.91 1.96,398.77 4.76,398.37"/>
    </edge>
    <edge id=":node_00x04_2" function="internal">
        <lane id=":node_00x04_2_0" index="0" disallow="tram rail_urban rail rail_electric ship" speed="13.89" length="5.00" shape="4.76,401.67 3.41,401.86 2.44,402.44 1.86,403.41 1.66,404.77"/>
    </edge>
    <edge id=":node_00x04_3" function="internal">
        <lane id=":node_00x04_3_0" index="0" disallow="tram rail_urban rail rail_electric ship" speed="13.89" length="10.32" shape="4.76,401.67 1.96,401.27 -0.04,400.07 -1.24,398.07 -1.64,395.27"/>
    </edge>
    <edge id=":node_00x04_4" function="internal">
        <lane id=":node_00x04_4_0" index="0" disallow="tram rail_urban rail rail_electric ship" speed="13.89" length="5.00" shape="1.66,395.27 1.86,396.62 2.44,397.59 3.41,398.17 4.76,398.37"/>
    </edge>
    <edge id=":node_00x04_5" function="internal">
        <lane id=":node_00x04_5_0" index="0" disallow="tram rail_urban rail rail_electric ship" speed="13.89" length="9.50" shape="1.66,395.27 1.66,404.77"/>
    </edge>
    <edge id=":node_00x05_0" function="internal">
        <lane id=":node_00x05_0_0" index="0" disallow="tram rail_urban rail rail_electric ship" speed="13.89" length="9.50" shape="-1.64,504.77 -1.64,495.27"/>
    </edge>
    <edge id=":node_00x05_1" function="internal">
        <lane id=":node_00x05_1_0" index="0" disallow="tram rail_urban rail rail_electric ship" speed="13.89" length="5.28" shape="-1.64,504.77 -1.24,501.97 -0.04,499.97 0.06,499.91"/>
    </edge>
    <edge id=":node_00x05_6" function="internal">
        <lane id=":node_00x05_6_0" index="0" speed="13.89" length="5.04" shape="0.06,499.91 1.96,498.77 4.76,498.37"/>
    </edge>
    <edge id=":node_00x05_2" function="internal">
        <lane id=":node_00x05_2_0" index="0" disallow="tram rail_urban rail rail_electric ship" speed="13.89" length="5.00" shape="4.76,501.67 3.41,501.86 2.44,502.44 1.86,503.41 1.66,504.77"/>
    </edge>
    <edge id=":node_00x05_3" function="internal">
        <lane id=":node_00x05_3_0" index="0" disallow="tram rail_urban rail rail_electric ship" speed="13.89" length="10.32" shape="4.76,501.67 1.96,501.27 -0.04,500.07 -1.24,498.07 -1.64,495.27"/>
    </edge>
    <edge id=":node_00x05_4" function="internal">
        <lane id=":node_00x05_4_0" index="0" disallow="tram rail_urban rail rail_electric ship" speed="13.89" length="5.00" shape="1.66,495.27 1.86,496.62 2.44,497.59 3.41,498.17 4.76,498.37"/>
    </edge>
    <edge id=":node_00x05_5" function="internal">
        <lane id=":node_00x05_5_0" index="0" disallow="tram rail_urban rail rail_electric ship" speed="13.89" length="9.50" shape="1.66,495.27 1.66,504.77"/>
    </edge>
    <edge id=":node_00x06_0" function="internal">
        <lane id=":node_00x06_0_0" index="0" disallow="tram rail_urban rail rail_electric ship" speed="13.89" length="9.50" shape="-1.64,604.77 -1.64,595.27"/>
    </edge>
    <edge id=":node_00x06_1" function="internal">
        <lane id=":node_00x06_1_0" index="0" disallow="tram rail_urban rail rail_electric ship" speed="13.89" length="5.28" shape="-1.64,604.77 -1.24,601.97 -0.04,599.97 0.06,599.91"/>
    </edge>
    <edge id=":node_00x06_6" function="internal">
        <lane id=":node_00x06_6_0" index="0" speed="13.89" length="5.04" shape="0.06,599.91 1.96,598.77 4.76,598.37"/>
    </edge>
    <edge id=":node_00x06_2" function="internal">
        <lane id=":node_00x06_2_0" index="0" disallow="tram rail_urban rail rail_electric ship" speed="13.89" length="5.00" shape="4.76,601.67 3.41,601.86 2.44,602.44 1.86,603.41 1.66,604.77"/>
    </edge>
    <edge id=":node_00x06_3" function="internal">
        <lane id=":node_00x06_3_0" index="0" disallow="tram rail_urban rail rail_electric ship" speed="13.89" length="10.32" shape="4.76,601.67 1.96,601.27 -0.04,600.07 -1.24,598.07 -1.64,595.27"/>
    </edge>
    <edge id=":node_00x06_4" function="internal">
        <lane id=":node_00x06_4_0" index="0" disallow="tram rail_urban rail rail_electric ship" speed="13.89" length="5.00" shape="1.66,595.27 1.86,596.62 2.44,597.59 3.41,598.17 4.76,598.37"/>
    </edge>
    <edge id=":node_00x06_5" function="internal">
        <lane id=":node_00x06_5_0" index="0" disallow="tram rail_urban rail rail_electric ship" speed="13.89" length="9.50" shape="1.66,595.27 1.66,604.77"/>
    </edge>
    <edge id=":node_00x07_0" function="internal">
        <lane id=":node_00x07_0_0" index="0" disallow="tram rail_urban rail rail_electric ship" speed="13.89" length="9.50" shape="-1.64,704.77 -1.64,695.27"/>
    </edge>
    <edge id=":node_00x07_1" function="internal">
        <lane id=":node_00x07_1_0" index="0" disallow="tram rail_urban rail rail_electric ship" speed="13.89" length="5.28" shape="-1.64,704.77 -1.24,701.97 -0.04,699.97 0.06,699.91"/>
    </edge>
    <edge id=":node_00x07_6" function="internal">
        <lane id=":node_00x07_6_0" index="0" speed="13.89" length="5.04" shape="0.06,699.91 1.96,698.77 4.76,698.37"/>
    </edge>
    <edge id=":node_00x07_2" function="internal">
        <lane id=":node_00x07_2_0" index="0" disallow="tram rail_urban rail rail_electric ship" speed="13.89" length="5.00" shape="4.76,701.67 3.40,701.86 2.43,702.44 1.85,703.41 1.66,704.77"/>
    </edge>
    <edge id=":node_00x07_3" function="internal">
        <lane id=":node_00x07_3_0" index="0" disallow="tram rail_urban rail rail_electric ship" speed="13.89" length="10.32" shape="4.76,701.67 1.96,701.27 -0.04,700.07 -1.24,698.07 -1.64,695.27"/>
    </edge>
    <edge id=":node_00x07_4" function="internal">
        <lane id=":node_00x07_4_0" index="0" disallow="tram rail_urban rail rail_electric ship" speed="13.89" length="5.00" shape="1.66,695.27 1.85,696.62 2.44,697.59 3.40,698.17 4.76,698.37"/>
    </edge>
    <edge id=":node_00x07_5" function="internal">
        <lane id=":node_00x07_5_0" index="0" disallow="tram rail_urban rail rail_electric ship" speed="13.89" length="9.50" shape="1.66,695.27 1.66,704.77"/>
    </edge>
    <edge id=":node_00x08_0" function="internal">
        <lane id=":node_00x08_0_0" index="0" disallow="tram rail_urban rail rail_electric ship" speed="13.89" length="9.50" shape="-1.64,804.77 -1.64,795.27"/>
    </edge>
    <edge id=":node_00x08_1" function="internal">
        <lane id=":node_00x08_1_0" index="0" disallow="tram rail_urban rail rail_electric ship" speed="13.89" length="5.28" shape="-1.64,804.77 -1.24,801.97 -0.04,799.97 0.06,799.91"/>
    </edge>
    <edge id=":node_00x08_6" function="internal">
        <lane id=":node_00x08_6_0" index="0" speed="13.89" length="5.04" shape="0.06,799.91 1.96,798.77 4.76,798.37"/>
    </edge>
    <edge id=":node_00x08_2" function="internal">
        <lane id=":node_00x08_2_0" index="0" disallow="tram rail_urban rail rail_electric ship" speed="13.89" length="5.00" shape="4.76,801.67 3.40,801.86 2.43,802.44 1.85,803.41 1.66,804.77"/>
    </edge>
    <edge id=":node_00x08_3" function="internal">
        <lane id=":node_00x08_3_0" index="0" disallow="tram rail_urban rail rail_electric ship" speed="13.89" length="10.32" shape="4.76,801.67 1.96,801.27 -0.04,800.07 -1.24,798.07 -1.64,795.27"/>
    </edge>
    <edge id=":node_00x08_4" function="internal">
        <lane id=":node_00x08_4_0" index="0" disallow="tram rail_urban rail rail_electric ship" speed="13.89" length="5.00" shape="1.66,795.27 1.85,796.62 2.43,797.59 3.40,798.17 4.76,798.37"/>
    </edge>
    <edge id=":node_00x08_5" function="internal">
        <lane id=":node_00x08_5_0" index="0" disallow="tram rail_urban rail rail_electric ship" speed="13.89" length="9.50" shape="1.66,795.27 1.66,804.77"/>
    </edge>
    <edge id=":node_00x09_0" function="internal">
        <lane id=":node_00x09_0_0" index="0" disallow="tram rail_urban rail rail_electric ship" speed="13.89" length="9.50" shape="-1.64,904.77 -1.64,895.27"/>
    </edge>
    <edge id=":node_00x09_1" function="internal">
        <lane id=":node_00x09_1_0" index="0" disallow="tram rail_urban rail rail_electric ship" speed="13.89" length="5.28" shape="-1.64,904.77 -1.24,901.97 -0.04,899.97 0.06,899.91"/>
    </edge>
    <edge id=":node_00x09_6" function="internal">
        <lane id=":node_00x09_6_0" index="0" speed="13.89" length="5.04" shape="0.06,899.91 1.96,898.77 4.76,898.37"/>
    </edge>
    <edge id=":node_00x09_2" function="internal">
        <lane id=":node_00x09_2_0" index="0" disallow="tram rail_urban rail rail_electric ship" speed="13.89" length="5.00" shape="4.76,901.67 3.40,901.86 2.43,902.44 1.85,903.41 1.66,904.77"/>
    </edge>
    <edge id=":node_00x09_3" function="internal">
        <lane id=":node_00x09_3_0" index="0" disallow="tram rail_urban rail rail_electric ship" speed="13.89" length="10.32" shape="4.76,901.67 1.96,901.27 -0.04,900.07 -1.24,898.07 -1.64,895.27"/>
    </edge>
    <edge id=":node_00x09_4" function="internal">
        <lane id=":node_00x09_4_0" index="0" disallow="tram rail_urban rail rail_electric ship" speed="13.89" length="5.00" shape="1.66,895.27 1.85,896.62 2.43,897.59 3.40,898.17 4.76,898.37"/>
    </edge>
    <edge id=":node_00x09_5" function="internal">
        <lane id=":node_00x09_5_0" index="0" disallow="tram rail_urban rail rail_electric ship" speed="13.89" length="9.50" shape="1.66,895.27 1.66,904.77"/>
    </edge>
    <edge id=":node_00x10_0" function="internal">
        <lane id=":node_00x10_0_0" index="0" disallow="tram rail_urban rail rail_electric ship" speed="13.89" length="9.50" shape="-1.65,1004.77 -1.65,995.27"/>
    </edge>
    <edge id=":node_00x10_1" function="internal">
        <lane id=":node_00x10_1_0" index="0" disallow="tram rail_urban rail rail_electric ship" speed="13.89" length="5.28" shape="-1.65,1004.77 -1.25,1001.97 -0.05,999.97 0.05,999.91"/>
    </edge>
    <edge id=":node_00x10_6" function="internal">
        <lane id=":node_00x10_6_0" index="0" speed="13.89" length="5.04" shape="0.05,999.91 1.95,998.77 4.75,998.37"/>
    </edge>
    <edge id=":node_00x10_2" function="internal">
        <lane id=":node_00x10_2_0" index="0" disallow="tram rail_urban rail rail_electric ship" speed="13.89" length="5.00" shape="4.75,1001.67 3.40,1001.86 2.43,1002.44 1.85,1003.41 1.65,1004.77"/>
    </edge>
    <edge id=":node_00x10_3" function="internal">
        <lane id=":node_00x10_3_0" index="0" disallow="tram rail_urban rail rail_electric ship" speed="13.89" length="10.32" shape="4.75,1001.67 1.95,1001.27 -0.05,1000.07 -1.25,998.07 -1.65,995.27"/>
    </edge>
    <edge id=":node_00x10_4" function="internal">
        <lane id=":node_00x10_4_0" index="0" disallow="tram rail_urban rail rail_electric ship" speed="13.89" length="5.00" shape="1.65,995.27 1.85,996.63 2.43,997.59 3.40,998.18 4.75,998.37"/>
    </edge>
    <edge id=":node_00x10_5" function="internal">
        <lane id=":node_00x10_5_0" index="0" disallow="tram rail_urban rail rail_electric ship" speed="13.89" length="9.50" shape="1.65,995.27 1.65,1004.77"/>
    </edge>
    <edge id=":node_00x11_0" function="internal">
        <lane id=":node_00x11_0_0" index="0" disallow="tram rail_urban rail rail_electric ship" speed="13.89" length="9.50" shape="-1.65,1104.77 -1.65,1095.27"/>
    </edge>
    <edge id=":node_00x11_1" function="internal">
        <lane id=":node_00x11_1_0" index="0" disallow="tram rail_urban rail rail_electric ship" speed="13.89" length="5.28" shape="-1.65,1104.77 -1.25,1101.97 -0.05,1099.97 0.05,1099.91"/>
    </edge>
    <edge id=":node_00x11_6" function="internal">
        <lane id=":node_00x11_6_0" index="0" speed="13.89" length="5.04" shape="0.05,1099.91 1.95,1098.77 4.75,1098.37"/>
    </edge>
    <edge id=":node_00x11_2" function="internal">
        <lane id=":node_00x11_2_0" index="0" disallow="tram rail_urban rail rail_electric ship" speed="13.89" length="5.00" shape="4.75,1101.67 3.40,1101.86 2.43,1102.45 1.85,1103.41 1.65,1104.77"/>
    </edge>
    <edge id=":node_00x11_3" function="internal">
        <lane id=":node_00x11_3_0" index="0" disallow="tram rail_urban rail rail_electric ship" speed="13.89" length="10.32" shape="4.75,1101.67 1.95,1101.27 -0.05,1100.07 -1.25,1098.07 -1.65,1095.27"/>
    </edge>
    <edge id=":node_00x11_4" function="internal">
        <lane id=":node_00x11_4_0" index="0" disallow="tram rail_urban rail rail_electric ship" speed="13.89" length="5.00" shape="1.65,1095.27 1.85,1096.63 2.43,1097.60 3.40,1098.18 4.75,1098.37"/>
    </edge>
    <edge id=":node_00x11_5" function="internal">
        <lane id=":node_00x11_5_0" index="0" disallow="tram rail_urban rail rail_electric ship" speed="13.89" length="9.50" shape="1.65,1095.27 1.65,1104.77"/>
    </edge>
    <edge id=":node_00x12_0" function="internal">
        <lane id=":node_00x12_0_0" index="0" disallow="tram rail_urban rail rail_electric ship" speed="13.89" length="9.50" shape="-1.65,1204.77 -1.65,1195.27"/>
    </edge>
    <edge id=":node_00x12_1" function="internal">
        <lane id=":node_00x12_1_0" index="0" disallow="tram rail_urban rail rail_electric ship" speed="13.89" length="5.28" shape="-1.65,1204.77 -1.25,1201.97 -0.05,1199.97 0.05,1199.91"/>
    </edge>
    <edge id=":node_00x12_6" function="internal">
        <lane id=":node_00x12_6_0" index="0" speed="13.89" length="5.04" shape="0.05,1199.91 1.95,1198.77 4.75,1198.37"/>
    </edge>
    <edge id=":node_00x12_2" function="internal">
        <lane id=":node_00x12_2_0" index="0" disallow="tram rail_urban rail rail_electric ship" speed="13.89" length="5.00" shape="4.75,1201.67 3.39,1201.87 2.43,1202.45 1.84,1203.42 1.65,1204.77"/>
    </edge>
    <edge id=":node_00x12_3" function="internal">
        <lane id=":node_00x12_3_0" index="0" disallow="tram rail_urban rail rail_electric ship" speed="13.89" length="10.32" shape="4.75,1201.67 1.95,1201.27 -0.05,1200.07 -1.25,1198.07 -1.65,1195.27"/>
    </edge>
    <edge id=":node_00x12_4" function="internal">
        <lane id=":node_00x12_4_0" index="0" disallow="tram rail_urban rail rail_electric ship" speed="13.89" length="5.00" shape="1.65,1195.27 1.84,1196.63 2.43,1197.60 3.39,1198.18 4.75,1198.37"/>
    </edge>
    <edge id=":node_00x12_5" function="internal">
        <lane id=":node_00x12_5_0" index="0" disallow="tram rail_urban rail rail_electric ship" speed="13.89" length="9.50" shape="1.65,1195.27 1.65,1204.77"/>
    </edge>
    <edge id=":node_00x13_0" function="internal">
        <lane id=":node_00x13_0_0" index="0" disallow="tram rail_urban rail rail_electric ship" speed="13.89" length="9.50" shape="-1.65,1304.78 -1.65,1295.28"/>
    </edge>
    <edge id=":node_00x13_1" function="internal">
        <lane id=":node_00x13_1_0" index="0" disallow="tram rail_urban rail rail_electric ship" speed="13.89" length="5.28" shape="-1.65,1304.78 -1.25,1301.98 -0.05,1299.98 0.05,1299.92"/>
    </edge>
    <edge id=":node_00x13_6" function="internal">
        <lane id=":node_00x13_6_0" index="0" speed="13.89" length="5.04" shape="0.05,1299.92 1.95,1298.78 4.75,1298.38"/>
    </edge>
    <edge id=":node_00x13_2" function="internal">
        <lane id=":node_00x13_2_0" index="0" disallow="tram rail_urban rail rail_electric ship" speed="13.89" length="5.00" shape="4.75,1301.68 3.39,1301.87 2.43,1302.45 1.84,1303.42 1.65,1304.78"/>
    </edge>
    <edge id=":node_00x13_3" function="internal">
        <lane id=":node_00x13_3_0" index="0" disallow="tram rail_urban rail rail_electric ship" speed="13.89" length="10.32" shape="4.75,1301.68 1.95,1301.28 -0.05,1300.08 -1.25,1298.08 -1.65,1295.28"/>
    </edge>
    <edge id=":node_00x13_4" function="internal">
        <lane id=":node_00x13_4_0" index="0" disallow="tram rail_urban rail rail_electric ship" speed="13.89" length="5.00" shape="1.65,1295.28 1.84,1296.63 2.43,1297.60 3.39,1298.18 4.75,1298.38"/>
    </edge>
    <edge id=":node_00x13_5" function="internal">
        <lane id=":node_00x13_5_0" index="0" disallow="tram rail_urban rail rail_electric ship" speed="13.89" length="9.50" shape="1.65,1295.28 1.65,1304.78"/>
    </edge>
    <edge id=":node_00x14_0" function="internal">
        <lane id=":node_00x14_0_0" index="0" disallow="tram rail_urban rail rail_electric ship" speed="13.89" length="9.50" shape="-1.65,1404.78 -1.65,1395.28"/>
    </edge>
    <edge id=":node_00x14_1" function="internal">
        <lane id=":node_00x14_1_0" index="0" disallow="tram rail_urban rail rail_electric ship" speed="13.89" length="5.28" shape="-1.65,1404.78 -1.25,1401.98 -0.05,1399.98 0.05,1399.92"/>
    </edge>
    <edge id=":node_00x14_6" function="internal">
        <lane id=":node_00x14_6_0" index="0" speed="13.89" length="5.04" shape="0.05,1399.92 1.95,1398.78 4.75,1398.38"/>
    </edge>
    <edge id=":node_00x14_2" function="internal">
        <lane id=":node_00x14_2_0" index="0" disallow="tram rail_urban rail rail_electric ship" speed="13.89" length="5.00" shape="4.75,1401.68 3.39,1401.87 2.43,1402.45 1.84,1403.42 1.65,1404.78"/>
    </edge>
    <edge id=":node_00x14_3" function="internal">
        <lane id=":node_00x14_3_0" index="0" disallow="tram rail_urban rail rail_electric ship" speed="13.89" length="10.32" shape="4.75,1401.68 1.95,1401.28 -0.05,1400.08 -1.25,1398.08 -1.65,1395.28"/>
    </edge>
    <edge id=":node_00x14_4" function="internal">
        <lane id=":node_00x14_4_0" index="0" disallow="tram rail_urban rail rail_electric ship" speed="13.89" length="5.00" shape="1.65,1395.28 1.84,1396.64 2.43,1397.60 3.39,1398.19 4.75,1398.38"/>
    </edge>
    <edge id=":node_00x14_5" function="internal">
        <lane id=":node_00x14_5_0" index="0" disallow="tram rail_urban rail rail_electric ship" speed="13.89" length="9.50" shape="1.65,1395.28 1.65,1404.78"/>
    </edge>
    <edge id=":node_00x15_0" function="internal">
        <lane id=":node_00x15_0_0" index="0" disallow="tram rail_urban rail rail_electric ship" speed="13.89" length="9.50" shape="-1.65,1504.78 -1.65,1495.28"/>
    </edge>
    <edge id=":node_00x15_1" function="internal">
        <lane id=":node_00x15_1_0" index="0" disallow="tram rail_urban rail rail_electric ship" speed="13.89" length="5.28" shape="-1.65,1504.78 -1.25,1501.98 -0.05,1499.98 0.05,1499.92"/>
    </edge>
    <edge id=":node_00x15_6" function="internal">
        <lane id=":node_00x15_6_0" index="0" speed="13.89" length="5.04" shape="0.05,1499.92 1.95,1498.78 4.75,1498.38"/>
    </edge>
    <edge id=":node_00x15_2" function="internal">
        <lane id=":node_00x15_2_0" index="0" disallow="tram rail_urban rail rail_electric ship" speed="13.89" length="5.00" shape="4.75,1501.68 3.40,1501.88 2.43,1502.46 1.85,1503.43 1.65,1504.78"/>
    </edge>
    <edge id=":node_00x15_3" function="internal">
        <lane id=":node_00x15_3_0" index="0" disallow="tram rail_urban rail rail_electric ship" speed="13.89" length="10.32" shape="4.75,1501.68 1.95,1501.28 -0.05,1500.08 -1.25,1498.08 -1.65,1495.28"/>
    </edge>
    <edge id=":node_00x15_4" function="internal">
        <lane id=":node_00x15_4_0" index="0" disallow="tram rail_urban rail rail_electric ship" speed="13.89" length="5.00" shape="1.65,1495.28 1.85,1496.64 2.43,1497.61 3.40,1498.19 4.75,1498.38"/>
    </edge>
    <edge id=":node_00x15_5" function="internal">
        <lane id=":node_00x15_5_0" index="0" disallow="tram rail_urban rail rail_electric ship" speed="13.89" length="9.50" shape="1.65,1495.28 1.65,1504.78"/>
    </edge>
    <edge id=":node_00x16_0" function="internal">
        <lane id=":node_00x16_0_0" index="0" disallow="tram rail_urban rail rail_electric ship" speed="13.89" length="9.50" shape="-1.64,1604.78 -1.64,1595.28"/>
    </edge>
    <edge id=":node_00x16_1" function="internal">
        <lane id=":node_00x16_1_0" index="0" disallow="tram rail_urban rail rail_electric ship" speed="13.89" length="5.28" shape="-1.64,1604.78 -1.24,1601.98 -0.04,1599.98 0.06,1599.92"/>
    </edge>
    <edge id=":node_00x16_6" function="internal">
        <lane id=":node_00x16_6_0" index="0" speed="13.89" length="5.04" shape="0.06,1599.92 1.96,1598.78 4.76,1598.38"/>
    </edge>
    <edge id=":node_00x16_2" function="internal">
        <lane id=":node_00x16_2_0" index="0" disallow="tram rail_urban rail rail_electric ship" speed="13.89" length="5.00" shape="4.76,1601.68 3.40,1601.88 2.43,1602.46 1.85,1603.43 1.66,1604.78"/>
    </edge>
    <edge id=":node_00x16_3" function="internal">
        <lane id=":node_00x16_3_0" index="0" disallow="tram rail_urban rail rail_electric ship" speed="13.89" length="10.32" shape="4.76,1601.68 1.96,1601.28 -0.04,1600.08 -1.24,1598.08 -1.64,1595.28"/>
    </edge>
    <edge id=":node_00x16_4" function="internal">
        <lane id=":node_00x16_4_0" index="0" disallow="tram rail_urban rail rail_electric ship" speed="13.89" length="5.00" shape="1.66,1595.28 1.85,1596.64 2.43,1597.61 3.40,1598.19 4.76,1598.38"/>
    </edge>
    <edge id=":node_00x16_5" function="internal">
        <lane id=":node_00x16_5_0" index="0" disallow="tram rail_urban rail rail_electric ship" speed="13.89" length="9.50" shape="1.66,1595.28 1.66,1604.78"/>
    </edge>
    <edge id=":node_00x17_0" function="internal">
        <lane id=":node_00x17_0_0" index="0" disallow="tram rail_urban rail rail_electric ship" speed="13.89" length="9.50" shape="-1.64,1704.78 -1.64,1695.28"/>
    </edge>
    <edge id=":node_00x17_1" function="internal">
        <lane id=":node_00x17_1_0" index="0" disallow="tram rail_urban rail rail_electric ship" speed="13.89" length="5.28" shape="-1.64,1704.78 -1.24,1701.98 -0.04,1699.98 0.06,1699.92"/>
    </edge>
    <edge id=":node_00x17_6" function="internal">
        <lane id=":node_00x17_6_0" index="0" speed="13.89" length="5.04" shape="0.06,1699.92 1.96,1698.78 4.76,1698.38"/>
    </edge>
    <edge id=":node_00x17_2" function="internal">
        <lane id=":node_00x17_2_0" index="0" disallow="tram rail_urban rail rail_electric ship" speed="13.89" length="5.00" shape="4.76,1701.68 3.40,1701.88 2.43,1702.46 1.85,1703.43 1.66,1704.78"/>
    </edge>
    <edge id=":node_00x17_3" function="internal">
        <lane id=":node_00x17_3_0" index="0" disallow="tram rail_urban rail rail_electric ship" speed="13.89" length="10.32" shape="4.76,1701.68 1.96,1701.28 -0.04,1700.08 -1.24,1698.08 -1.64,1695.28"/>
    </edge>
    <edge id=":node_00x17_4" function="internal">