<?xml version="1.0"?>
<!-- generated on 2017-02-06 18:10:09.713000 by $Id: route2trips.py 20433 2016-04-13 08:00:14Z behrisch $ -->
<trips>
    <vType id="passenger" vClass="passenger"/>
    <trip id="0" depart="0.00" from="yedge_16x19" to="yedge_17x11" type="passenger"/>
    <trip id="1" depart="0.65" from="yedge_10x29" to="xedge_18x33" type="passenger"/>
    <trip id="2" depart="1.30" from="yedge_16x09" to="xedge_10x14" type="passenger"/>
    <trip id="3" depart="1.95" from="xedge_19x29" to="xedge_18x24" type="passenger"/>
    <trip id="4" depart="2.60" from="yedge_03x08" to="xedge_16x17" type="passenger"/>
    <trip id="6" depart="3.90" from="yedge_17x17" to="yedge_05x22" type="passenger"/>
    <trip id="7" depart="4.55" from="xedge_17x06" to="yedge_19x26" type="passenger"/>
    <trip id="8" depart="5.20" from="yedge_17x12" to="yedge_05x09" type="passenger"/>
    <trip id="9" depart="5.85" from="xedge_00x03" to="yedge_14x17" type="passenger"/>
    <trip id="10" depart="6.50" from="yedge_15x33" to="yedge_14x23" type="passenger"/>
    <trip id="11" depart="7.15" from="xedge_00x18" to="yedge_02x02" type="passenger"/>
    <trip id="12" depart="7.80" from="yedge_13x12" to="yedge_12x20" type="passenger"/>
    <trip id="13" depart="8.45" from="yedge_15x14" to="yedge_18x25" type="passenger"/>
    <trip id="14" depart="9.10" from="xedge_07x07" to="yedge_05x00" type="passenger"/>
    <trip id="15" depart="9.75" from="yedge_20x08" to="yedge_00x20" type="passenger"/>
    <trip id="16" depart="10.40" from="xedge_19x19" to="yedge_15x13" type="passenger"/>
    <trip id="17" depart="11.05" from="yedge_06x22" to="yedge_16x06" type="passenger"/>
    <trip id="18" depart="11.70" from="yedge_08x36" to="xedge_08x24" type="passenger"/>
    <trip id="19" depart="12.35" from="yedge_20x30" to="xedge_07x07" type="passenger"/>
    <trip id="20" depart="13.00" from="yedge_13x20" to="yedge_17x02" type="passenger"/>
    <trip id="21" depart="13.65" from="xedge_14x35" to="xedge_03x20" type="passenger"/>
    <trip id="22" depart="14.30" from="yedge_04x19" to="yedge_16x34" type="passenger"/>
    <trip id="23" depart="14.95" from="xedge_13x06" to="yedge_00x04" type="passenger"/>
    <trip id="25" depart="16.25" from="xedge_01x29" to="yedge_15x37" type="passenger"/>
    <trip id="26" depart="16.90" from="yedge_13x16" to="yedge_16x16" type="passenger"/>
    <trip id="27" depart="17.55" from="xedge_16x38" to="xedge_04x16" type="passenger"/>
    <trip id="28" depart="18.20" from="xedge_08x26" to="xedge_01x16" type="passenger"/>
    <trip id="29" depart="18.85" from="yedge_15x23" to="yedge_08x00" type="passenger"/>
    <trip id="30" depart="19.50" from="xedge_07x33" to="yedge_06x12" type="passenger"/>
    <trip id="31" depart="20.15" from="yedge_05x22" to="yedge_15x08" type="passenger"/>
    <trip id="32" depart="20.80" from="yedge_19x00" to="yedge_14x01" type="passenger"/>
    <trip id="33" depart="21.45" from="xedge_15x31" to="xedge_11x35" type="passenger"/>
    <trip id="34" depart="22.10" from="xedge_10x37" to="xedge_14x27" type="passenger"/>
    <trip id="36" depart="23.40" from="xedge_05x31" to="xedge_05x17" type="passenger"/>
    <trip id="37" depart="24.05" from="yedge_06x01" to="xedge_11x16" type="passenger"/>
    <trip id="38" depart="24.70" from="yedge_12x05" to="yedge_10x18" type="passenger"/>
    <trip id="39" depart="25.35" from="yedge_13x01" to="yedge_17x36" type="passenger"/>
    <trip id="40" depart="26.00" from="xedge_00x33" to="xedge_17x19" type="passenger"/>
    <trip id="41" depart="26.65" from="xedge_09x13" to="yedge_08x09" type="passenger"/>
    <trip id="42" depart="27.30" from="xedge_05x25" to="xedge_16x21" type="passenger"/>
    <trip id="43" depart="27.95" from="xedge_16x08" to="xedge_05x27" type="passenger"/>
    <trip id="44" depart="28.60" from="yedge_04x20" to="yedge_04x13" type="passenger"/>
    <trip id="45" depart="29.25" from="xedge_11x09" to="xedge_13x38" type="passenger"/>
    <trip id="46" depart="29.90" from="xedge_16x24" to="xedge_18x30" type="passenger"/>
    <trip id="47" depart="30.55" from="xedge_08x23" to="xedge_08x18" type="passenger"/>
    <trip id="48" depart="31.20" from="xedge_15x13" to="yedge_15x00" type="passenger"/>
    <trip id="49" depart="31.85" from="yedge_08x02" to="xedge_00x06" type="passenger"/>
    <trip id="50" depart="32.50" from="xedge_08x23" to="yedge_14x28" type="passenger"/>
    <trip id="51" depart="33.15" from="yedge_07x28" to="yedge_06x01" type="passenger"/>
    <trip id="52" depart="33.80" from="yedge_08x37" to="xedge_03x17" type="passenger"/>
    <trip id="53" depart="34.45" from="yedge_04x13" to="yedge_00x01" type="passenger"/>
    <trip id="54" depart="35.10" from="xedge_13x11" to="xedge_00x05" type="passenger"/>
    <trip id="55" depart="35.75" from="xedge_04x29" to="xedge_03x16" type="passenger"/>
    <trip id="56" depart="36.40" from="yedge_01x17" to="yedge_08x19" type="passenger"/>
    <trip id="57" depart="37.05" from="xedge_03x26" to="yedge_03x24" type="passenger"/>
    <trip id="58" depart="37.70" from="yedge_05x33" to="yedge_07x36" type="passenger"/>
    <trip id="59" depart="38.35" from="xedge_00x36" to="yedge_16x07" type="passenger"/>
    <trip id="60" depart="39.00" from="xedge_14x11" to="yedge_18x19" type="passenger"/>
    <trip id="62" depart="40.30" from="xedge_03x07" to="xedge_05x27" type="passenger"/>
    <trip id="63" depart="40.95" from="yedge_14x39" to="yedge_19x09" type="passenger"/>
    <trip id="64" depart="41.60" from="yedge_12x32" to="yedge_09x16" type="passenger"/>
    <trip id="65" depart="42.25" from="yedge_06x16" to="yedge_10x15" type="passenger"/>
    <trip id="66" depart="42.90" from="yedge_17x08" to="yedge_05x33" type="passenger"/>
    <trip id="67" depart="43.55" from="xedge_03x11" to="xedge_14x14" type="passenger"/>
    <trip id="68" depart="44.20" from="yedge_19x29" to="yedge_14x10" type="passenger"/>
    <trip id="69" depart="44.85" from="yedge_08x05" to="xedge_00x12" type="passenger"/>
    <trip id="70" depart="45.50" from="yedge_04x31" to="yedge_04x20" type="passenger"/>
    <trip id="71" depart="46.15" from="xedge_10x15" to="yedge_06x02" type="passenger"/>
    <trip id="72" depart="46.80" from="yedge_15x06" to="xedge_14x37" type="passenger"/>
    <trip id="73" depart="47.45" from="xedge_03x13" to="xedge_10x24" type="passenger"/>
    <trip id="74" depart="48.10" from="xedge_02x13" to="xedge_01x28" type="passenger"/>
    <trip id="75" depart="48.75" from="xedge_06x11" to="xedge_01x25" type="passenger"/>
    <trip id="76" depart="49.40" from="xedge_16x18" to="xedge_02x32" type="passenger"/>
    <trip id="77" depart="50.05" from="yedge_17x37" to="yedge_01x11" type="passenger"/>
    <trip id="78" depart="50.70" from="xedge_07x16" to="yedge_11x31" type="passenger"/>
    <trip id="79" depart="51.35" from="xedge_03x00" to="xedge_15x07" type="passenger"/>
    <trip id="80" depart="52.00" from="yedge_12x33" to="yedge_09x25" type="passenger"/>
    <trip id="81" depart="52.65" from="yedge_05x01" to="xedge_05x32" type="passenger"/>
    <trip id="82" depart="53.30" from="yedge_18x18" to="yedge_05x26" type="passenger"/>
    <trip id="83" depart="53.95" from="yedge_13x16" to="yedge_14x20" type="passenger"/>
    <trip id="84" depart="54.60" from="yedge_15x19" to="yedge_05x20" type="passenger"/>
    <trip id="85" depart="55.25" from="xedge_16x39" to="xedge_02x38" type="passenger"/>
    <trip id="87" depart="56.55" from="yedge_15x15" to="yedge_11x27" type="passenger"/>
    <trip id="88" depart="57.20" from="yedge_04x31" to="xedge_05x09" type="passenger"/>
    <trip id="89" depart="57.85" from="yedge_05x10" to="xedge_00x35" type="passenger"/>
    <trip id="90" depart="58.50" from="xedge_15x28" to="yedge_08x36" type="passenger"/>
    <trip id="91" depart="59.15" from="xedge_13x04" to="yedge_18x25" type="passenger"/>
    <trip id="92" depart="59.80" from="yedge_14x19" to="xedge_00x13" type="passenger"/>
    <trip id="93" depart="60.45" from="yedge_09x00" to="xedge_02x03" type="passenger"/>
    <trip id="94" depart="61.10" from="yedge_14x23" to="yedge_01x02" type="passenger"/>
    <trip id="95" depart="61.75" from="yedge_05x31" to="yedge_16x18" type="passenger"/>
    <trip id="96" depart="62.40" from="yedge_20x00" to="xedge_17x21" type="passenger"/>
    <trip id="98" depart="63.70" from="xedge_17x12" to="yedge_11x12" type="passenger"/>
    <trip id="99" depart="64.35" from="xedge_18x24" to="yedge_19x04" type="passenger"/>
    <trip id="100" depart="65.00" from="yedge_08x24" to="yedge_02x18" type="passenger"/>
    <trip id="101" depart="65.65" from="xedge_01x11" to="yedge_14x27" type="passenger"/>
    <trip id="102" depart="66.30" from="xedge_08x27" to="xedge_12x30" type="passenger"/>
    <trip id="103" depart="66.95" from="yedge_03x17" to="xedge_04x29" type="passenger"/>
    <trip id="104" depart="67.60" from="xedge_19x11" to="yedge_11x00" type="passenger"/>
    <trip id="105" depart="68.25" from="yedge_08x09" to="yedge_08x04" type="passenger"/>
    <trip id="107" depart="69.55" from="yedge_03x10" to="yedge_18x02" type="passenger"/>
    <trip id="108" depart="70.20" from="xedge_07x04" to="xedge_05x28" type="passenger"/>
    <trip id="109" depart="70.85" from="yedge_06x39" to="yedge_01x12" type="passenger"/>
    <trip id="110" depart="71.50" from="yedge_02x03" to="xedge_08x23" type="passenger"/>
    <trip id="111" depart="72.15" from="yedge_03x09" to="xedge_03x10" type="passenger"/>
    <trip id="112" depart="72.80" from="yedge_00x03" to="yedge_03x02" type="passenger"/>
    <trip id="113" depart="73.45" from="xedge_15x13" to="yedge_01x12" type="passenger"/>
    <trip id="114" depart="74.10" from="yedge_05x28" to="yedge_10x06" type="passenger"/>
    <trip id="115" depart="74.75" from="yedge_20x30" to="yedge_03x31" type="passenger"/>
    <trip id="116" depart="75.40" from="yedge_19x12" to="yedge_04x26" type="passenger"/>
    <trip id="117" depart="76.05" from="yedge_06x01" to="yedge_07x11" type="passenger"/>
    <trip id="118" depart="76.70" from="yedge_00x18" to="yedge_06x39" type="passenger"/>
    <trip id="119" depart="77.35" from="yedge_01x12" to="yedge_11x00" type="passenger"/>
    <trip id="120" depart="78.00" from="xedge_13x18" to="xedge_11x15" type="passenger"/>
    <trip id="122" depart="79.30" from="xedge_17x26" to="yedge_07x04" type="passenger"/>
    <trip id="124" depart="80.60" from="yedge_10x17" to="xedge_08x25" type="passenger"/>
    <trip id="125" depart="81.25" from="yedge_11x26" to="xedge_11x32" type="passenger"/>
    <trip id="126" depart="81.90" from="yedge_17x25" to="xedge_17x14" type="passenger"/>
    <trip id="127" depart="82.55" from="yedge_20x15" to="yedge_08x36" type="passenger"/>
    <trip id="128" depart="83.20" from="xedge_00x24" to="yedge_08x39" type="passenger"/>
    <trip id="129" depart="83.85" from="xedge_06x21" to="xedge_06x14" type="passenger"/>
    <trip id="130" depart="84.50" from="yedge_19x20" to="yedge_17x36" type="passenger"/>
    <trip id="131" depart="85.15" from="yedge_08x12" to="xedge_03x11" type="passenger"/>
    <trip id="133" depart="86.45" from="yedge_04x32" to="yedge_05x21" type="passenger"/>
    <trip id="134" depart="87.10" from="yedge_20x30" to="xedge_08x18" type="passenger"/>
    <trip id="135" depart="87.75" from="yedge_08x16" to="yedge_19x13" type="passenger"/>
    <trip id="136" depart="88.40" from="yedge_01x14" to="xedge_09x08" type="passenger"/>
    <trip id="137" depart="89.05" from="yedge_10x12" to="xedge_05x14" type="passenger"/>
    <trip id="138" depart="89.70" from="yedge_09x22" to="xedge_13x14" type="passenger"/>
    <trip id="139" depart="90.35" from="xedge_00x13" to="xedge_08x24" type="passenger"/>
    <trip id="140" depart="91.00" from="yedge_09x25" to="yedge_05x31" type="passenger"/>
    <trip id="141" depart="91.65" from="yedge_08x24" to="yedge_10x25" type="passenger"/>
    <trip id="142" depart="92.30" from="yedge_15x18" to="yedge_17x10" type="passenger"/>
    <trip id="143" depart="92.95" from="xedge_11x17" to="xedge_13x14" type="passenger"/>
    <trip id="144" depart="93.60" from="xedge_00x25" to="xedge_09x33" type="passenger"/>
    <trip id="145" depart="94.25" from="xedge_05x24" to="yedge_10x09" type="passenger"/>
    <trip id="146" depart="94.90" from="yedge_20x21" to="xedge_07x07" type="passenger"/>
    <trip id="147" depart="95.55" from="yedge_04x31" to="xedge_09x17" type="passenger"/>
    <trip id="148" depart="96.20" from="xedge_15x25" to="yedge_17x17" type="passenger"/>
    <trip id="150" depart="97.50" from="yedge_01x02" to="yedge_15x14" type="passenger"/>
    <trip id="151" depart="98.15" from="yedge_10x35" to="yedge_05x26" type="passenger"/>
    <trip id="152" depart="98.80" from="xedge_06x38" to="yedge_08x12" type="passenger"/>
    <trip id="153" depart="99.45" from="xedge_18x11" to="xedge_06x11" type="passenger"/>
    <trip id="154" depart="100.10" from="xedge_06x15" to="xedge_14x22" type="passenger"/>
    <trip id="155" depart="100.75" from="xedge_08x23" to="yedge_01x05" type="passenger"/>
    <trip id="156" depart="101.40" from="xedge_12x21" to="xedge_14x11" type="passenger"/>
    <trip id="157" depart="102.05" from="xedge_12x27" to="yedge_14x23" type="passenger"/>
    <trip id="158" depart="102.70" from="yedge_10x29" to="xedge_14x11" type="passenger"/>
    <trip id="159" depart="103.35" from="xedge_16x08" to="yedge_16x19" type="passenger"/>
    <trip id="160" depart="104.00" from="xedge_13x22" to="yedge_01x13" type="passenger"/>
    <trip id="161" depart="104.65" from="xedge_17x09" to="yedge_00x05" type="passenger"/>
    <trip id="162" depart="105.30" from="xedge_07x17" to="xedge_01x00" type="passenger"/>
    <trip id="163" depart="105.95" from="xedge_02x16" to="xedge_06x13" type="passenger"/>
    <trip id="164" depart="106.60" from="yedge_20x10" to="yedge_20x02" type="passenger"/>
    <trip id="165" depart="107.25" from="xedge_16x34" to="yedge_05x19" type="passenger"/>
    <trip id="166" depart="107.90" from="xedge_16x36" to="yedge_08x18" type="passenger"/>
    <trip id="167" depart="108.55" from="yedge_10x16" to="xedge_07x06" type="passenger"/>
    <trip id="168" depart="109.20" from="yedge_14x05" to="xedge_16x08" type="passenger"/>
    <trip id="169" depart="109.85" from="xedge_01x00" to="xedge_06x38" type="passenger"/>
    <trip id="170" depart="110.50" from="xedge_14x16" to="xedge_16x39" type="passenger"/>
    <trip id="171" depart="111.15" from="xedge_13x11" to="yedge_20x24" type="passenger"/>
    <trip id="172" depart="111.80" from="xedge_17x33" to="xedge_12x33" type="passenger"/>
    <trip id="173" depart="112.45" from="yedge_05x26" to="yedge_19x29" type="passenger"/>
    <trip id="174" depart="113.10" from="xedge_08x26" to="xedge_16x16" type="passenger"/>
    <trip id="175" depart="113.75" from="yedge_07x11" to="xedge_15x24" type="passenger"/>
    <trip id="176" depart="114.40" from="xedge_01x25" to="yedge_09x28" type="passenger"/>
    <trip id="177" depart="115.05" from="xedge_12x11" to="yedge_10x07" type="passenger"/>
    <trip id="178" depart="115.70" from="yedge_20x10" to="xedge_16x27" type="passenger"/>
    <trip id="179" depart="116.35" from="yedge_00x04" to="yedge_10x08" type="passenger"/>
    <trip id="180" depart="117.00" from="yedge_09x22" to="yedge_11x32" type="passenger"/>
    <trip id="181" depart="117.65" from="yedge_02x23" to="xedge_19x28" type="passenger"/>
    <trip id="182" depart="118.30" from="xedge_12x10" to="yedge_20x09" type="passenger"/>
    <trip id="183" depart="118.95" from="xedge_16x35" to="yedge_17x03" type="passenger"/>
    <trip id="184" depart="119.60" from="xedge_07x16" to="yedge_15x16" type="passenger"/>
    <trip id="185" depart="120.25" from="yedge_15x01" to="yedge_08x08" type="passenger"/>
    <trip id="186" depart="120.90" from="yedge_14x19" to="yedge_10x04" type="passenger"/>
    <trip id="187" depart="121.55" from="yedge_18x31" to="xedge_00x36" type="passenger"/>
    <trip id="188" depart="122.20" from="xedge_06x18" to="xedge_00x25" type="passenger"/>
    <trip id="189" depart="122.85" from="yedge_02x22" to="yedge_13x20" type="passenger"/>
    <trip id="190" depart="123.50" from="xedge_02x38" to="xedge_07x38" type="passenger"/>
    <trip id="191" depart="124.15" from="xedge_03x30" to="yedge_08x36" type="passenger"/>
    <trip id="192" depart="124.80" from="xedge_16x37" to="xedge_04x19" type="passenger"/>
    <trip id="193" depart="125.45" from="xedge_12x20" to="yedge_10x02" type="passenger"/>
    <trip id="194" depart="126.10" from="xedge_16x09" to="xedge_19x12" type="passenger"/>
    <trip id="196" depart="127.40" from="xedge_16x21" to="xedge_19x28" type="passenger"/>
    <trip id="197" depart="128.05" from="xedge_14x23" to="xedge_05x17" type="passenger"/>
    <trip id="198" depart="128.70" from="yedge_17x35" to="xedge_18x11" type="passenger"/>
    <trip id="199" depart="129.35" from="xedge_01x38" to="yedge_20x30" type="passenger"/>
    <trip id="200" depart="130.00" from="yedge_13x01" to="xedge_10x09" type="passenger"/>
    <trip id="201" depart="130.65" from="xedge_02x12" to="xedge_03x07" type="passenger"/>
    <trip id="202" depart="131.30" from="yedge_12x11" to="yedge_05x27" type="passenger"/>
    <trip id="203" depart="131.95" from="yedge_10x16" to="xedge_11x04" type="passenger"/>
    <trip id="204" depart="132.60" from="yedge_20x10" to="xedge_07x00" type="passenger"/>
    <trip id="205" depart="133.25" from="yedge_10x14" to="xedge_07x18" type="passenger"/>
    <trip id="206" depart="133.90" from="yedge_18x02" to="yedge_12x21" type="passenger"/>
    <trip id="207" depart="134.55" from="xedge_17x29" to="yedge_06x37" type="passenger"/>
    <trip id="208" depart="135.20" from="xedge_02x22" to="xedge_15x32" type="passenger"/>
    <trip id="209" depart="135.85" from="xedge_09x38" to="yedge_14x01" type="passenger"/>
    <trip id="210" depart="136.50" from="yedge_18x23" to="yedge_03x30" type="passenger"/>
    <trip id="212" depart="137.80" from="xedge_01x32" to="xedge_10x08" type="passenger"/>
    <trip id="213" depart="138.45" from="xedge_12x34" to="xedge_00x23" type="passenger"/>
    <trip id="214" depart="139.10" from="yedge_06x38" to="xedge_12x39" type="passenger"/>
    <trip id="215" depart="139.75" from="xedge_06x36" to="yedge_03x13" type="passenger"/>
    <trip id="216" depart="140.40" from="xedge_02x32" to="xedge_18x32" type="passenger"/>
    <trip id="217" depart="141.05" from="xedge_08x03" to="xedge_00x34" type="passenger"/>
    <trip id="218" depart="141.70" from="yedge_02x00" to="yedge_13x21" type="passenger"/>
    <trip id="219" depart="142.35" from="yedge_03x14" to="xedge_15x09" type="passenger"/>
    <trip id="220" depart="143.00" from="yedge_15x13" to="xedge_16x07" type="passenger"/>
    <trip id="222" depart="144.30" from="xedge_15x33" to="yedge_14x28" type="passenger"/>
    <trip id="223" depart="144.95" from="xedge_08x18" to="yedge_05x01" type="passenger"/>
    <trip id="224" depart="145.60" from="xedge_04x18" to="xedge_04x18" type="passenger"/>
    <trip id="225" depart="146.25" from="yedge_15x30" to="xedge_08x26" type="passenger"/>
    <trip id="228" depart="148.20" from="xedge_16x14" to="yedge_20x21" type="passenger"/>
    <trip id="229" depart="148.85" from="yedge_13x20" to="yedge_01x17" type="passenger"/>
    <trip id="230" depart="149.50" from="xedge_09x33" to="xedge_07x08" type="passenger"/>
    <trip id="231" depart="150.15" from="yedge_00x00" to="yedge_13x20" type="passenger"/>
    <trip id="232" depart="150.80" from="xedge_01x07" to="xedge_20x20" type="passenger"/>
    <trip id="233" depart="151.45" from="xedge_18x13" to="xedge_00x30" type="passenger"/>
    <trip id="234" depart="152.10" from="yedge_20x12" to="xedge_19x10" type="passenger"/>
    <trip id="235" depart="152.75" from="yedge_09x05" to="yedge_07x34" type="passenger"/>
    <trip id="236" depart="153.40" from="yedge_15x19" to="yedge_12x02" type="passenger"/>
    <trip id="238" depart="154.70" from="yedge_18x09" to="yedge_06x28" type="passenger"/>
    <trip id="239" depart="155.35" from="yedge_15x17" to="xedge_07x16" type="passenger"/>
    <trip id="240" depart="156.00" from="yedge_18x22" to="yedge_01x13" type="passenger"/>
    <trip id="241" depart="156.65" from="xedge_04x18" to="yedge_20x03" type="passenger"/>
    <trip id="242" depart="157.30" from="yedge_09x38" to="xedge_08x28" type="passenger"/>
    <trip id="243" depart="157.95" from="xedge_05x23" to="yedge_09x37" type="passenger"/>
    <trip id="244" depart="158.60" from="xedge_05x23" to="yedge_04x12" type="passenger"/>
    <trip id="245" depart="159.25" from="xedge_20x13" to="xedge_03x12" type="passenger"/>
    <trip id="246" depart="159.90" from="yedge_03x15" to="yedge_13x24" type="passenger"/>
    <trip id="247" depart="160.55" from="yedge_20x20" to="yedge_13x31" type="passenger"/>
    <trip id="248" depart="161.20" from="xedge_03x11" to="yedge_17x02" type="passenger"/>
    <trip id="249" depart="161.85" from="yedge_08x08" to="yedge_12x11" type="passenger"/>
    <trip id="251" depart="163.15" from="yedge_06x03" to="xedge_02x36" type="passenger"/>
    <trip id="252" depart="163.80" from="yedge_12x27" to="xedge_12x21" type="passenger"/>
    <trip id="253" depart="164.45" from="yedge_03x15" to="xedge_07x20" type="passenger"/>
    <trip id="254" depart="165.10" from="yedge_07x05" to="xedge_05x37" type="passenger"/>
    <trip id="255" depart="165.75" from="xedge_09x36" to="yedge_09x34" type="passenger"/>
    <trip id="256" depart="166.40" from="xedge_15x37" to="xedge_12x30" type="passenger"/>
    <trip id="257" depart="167.05" from="xedge_15x37" to="xedge_20x13" type="passenger"/>
    <trip id="258" depart="167.70" from="xedge_00x13" to="xedge_18x31" type="passenger"/>
    <trip id="259" depart="168.35" from="xedge_07x05" to="yedge_15x15" type="passenger"/>
    <trip id="260" depart="169.00" from="yedge_08x10" to="xedge_11x32" type="passenger"/>
    <trip id="261" depart="169.65" from="xedge_05x21" to="xedge_06x22" type="passenger"/>
    <trip id="262" depart="170.30" from="yedge_17x11" to="yedge_14x21" type="passenger"/>
    <trip id="263" depart="170.95" from="yedge_17x27" to="xedge_05x25" type="passenger"/>
    <trip id="264" depart="171.60" from="xedge_04x09" to="yedge_14x06" type="passenger"/>
    <trip id="265" depart="172.25" from="yedge_14x04" to="xedge_06x21" type="passenger"/>
    <trip id="266" depart="172.90" from="xedge_07x38" to="yedge_10x09" type="passenger"/>
    <trip id="267" depart="173.55" from="yedge_15x34" to="xedge_13x14" type="passenger"/>
    <trip id="268" depart="174.20" from="yedge_10x03" to="yedge_04x08" type="passenger"/>
    <trip id="269" depart="174.85" from="xedge_17x20" to="xedge_06x04" type="passenger"/>
    <trip id="270" depart="175.50" from="xedge_01x32" to="xedge_01x10" type="passenger"/>
    <trip id="272" depart="176.80" from="yedge_18x17" to="yedge_09x38" type="passenger"/>
    <trip id="273" depart="177.45" from="yedge_14x10" to="yedge_01x09" type="passenger"/>
    <trip id="274" depart="178.10" from="yedge_04x13" to="xedge_11x03" type="passenger"/>
    <trip id="275" depart="178.75" from="xedge_01x06" to="xedge_13x07" type="passenger"/>
    <trip id="276" depart="179.40" from="xedge_18x24" to="xedge_20x19" type="passenger"/>
    <trip id="277" depart="180.05" from="yedge_06x20" to="xedge_10x25" type="passenger"/>
    <trip id="278" depart="180.70" from="xedge_11x32" to="yedge_11x09" type="passenger"/>
    <trip id="279" depart="181.35" from="xedge_07x17" to="xedge_03x19" type="passenger"/>
    <trip id="280" depart="182.00" from="yedge_02x16" to="yedge_17x36" type="passenger"/>
    <trip id="281" depart="182.65" from="xedge_01x34" to="xedge_10x27" type="passenger"/>
    <trip id="282" depart="183.30" from="yedge_03x08" to="xedge_17x21" type="passenger"/>
    <trip id="283" depart="183.95" from="xedge_15x11" to="yedge_15x16" type="passenger"/>
    <trip id="284" depart="184.60" from="yedge_10x08" to="yedge_03x14" type="passenger"/>
    <trip id="285" depart="185.25" from="xedge_09x13" to="yedge_08x00" type="passenger"/>
    <trip id="286" depart="185.90" from="yedge_11x15" to="yedge_09x05" type="passenger"/>
    <trip id="287" depart="186.55" from="yedge_04x08" to="xedge_05x29" type="passenger"/>
    <trip id="288" depart="187.20" from="yedge_02x01" to="xedge_11x23" type="passenger"/>
    <trip id="289" depart="187.85" from="yedge_13x18" to="yedge_12x31" type="passenger"/>
    <trip id="290" depart="188.50" from="xedge_08x28" to="xedge_00x01" type="passenger"/>
    <trip id="292" depart="189.80" from="yedge_13x20" to="xedge_14x34" type="passenger"/>
    <trip id="293" depart="190.45" from="xedge_06x12" to="xedge_15x13" type="passenger"/>
    <trip id="294" depart="191.10" from="xedge_14x37" to="xedge_06x00" type="passenger"/>
    <trip id="295" depart="191.75" from="yedge_05x26" to="xedge_04x38" type="passenger"/>
    <trip id="296" depart="192.40" from="xedge_10x24" to="yedge_16x00" type="passenger"/>
    <trip id="298" depart="193.70" from="yedge_06x23" to="yedge_18x03" type="passenger"/>
    <trip id="299" depart="194.35" from="xedge_03x00" to="xedge_17x13" type="passenger"/>
    <trip id="300" depart="195.00" from="yedge_20x02" to="yedge_09x24" type="passenger"/>
    <trip id="301" depart="195.65" from="xedge_15x30" to="xedge_12x21" type="passenger"/>
    <trip id="302" depart="196.30" from="xedge_09x00" to="yedge_15x18" type="passenger"/>
    <trip id="303" depart="196.95" from="yedge_07x05" to="yedge_17x26" type="passenger"/>
    <trip id="304" depart="197.60" from="xedge_07x30" to="yedge_17x26" type="passenger"/>
    <trip id="305" depart="198.25" from="xedge_10x39" to="xedge_07x11" type="passenger"/>
    <trip id="306" depart="198.90" from="yedge_18x09" to="yedge_03x08" type="passenger"/>
    <trip id="307" depart="199.55" from="xedge_09x32" to="xedge_13x23" type="passenger"/>
    <trip id="308" depart="200.20" from="xedge_06x18" to="yedge_10x12" type="passenger"/>
    <trip id="309" depart="200.85" from="yedge_17x17" to="yedge_20x10" type="passenger"/>
    <trip id="310" depart="201.50" from="xedge_05x26" to="xedge_09x36" type="passenger"/>
    <trip id="311" depart="202.15" from="xedge_08x04" to="xedge_08x32" type="passenger"/>
    <trip id="312" depart="202.80" from="xedge_05x34" to="yedge_00x18" type="passenger"/>
    <trip id="313" depart="203.45" from="yedge_13x21" to="yedge_07x04" type="passenger"/>
    <trip id="314" depart="204.10" from="xedge_05x15" to="yedge_19x27" type="passenger"/>
    <trip id="315" depart="204.75" from="yedge_15x08" to="xedge_07x31" type="passenger"/>
    <trip id="316" depart="205.40" from="yedge_20x10" to="xedge_04x09" type="passenger"/>
    <trip id="317" depart="206.05" from="xedge_06x38" to="xedge_04x05" type="passenger"/>
    <trip id="318" depart="206.70" from="yedge_13x30" to="xedge_12x10" type="passenger"/>
    <trip id="319" depart="207.35" from="yedge_10x29" to="yedge_06x19" type="passenger"/>
    <trip id="320" depart="208.00" from="xedge_07x21" to="xedge_00x25" type="passenger"/>
    <trip id="321" depart="208.65" from="xedge_09x12" to="yedge_16x18" type="passenger"/>
    <trip id="322" depart="209.30" from="xedge_03x13" to="yedge_10x16" type="passenger"/>
    <trip id="323" depart="209.95" from="yedge_14x22" to="yedge_19x29" type="passenger"/>
    <trip id="324" depart="210.60" from="yedge_12x23" to="xedge_10x37" type="passenger"/>
    <trip id="325" depart="211.25" from="yedge_00x18" to="yedge_02x07" type="passenger"/>
    <trip id="326" depart="211.90" from="yedge_11x01" to="xedge_09x09" type="passenger"/>
    <trip id="327" depart="212.55" from="yedge_15x08" to="xedge_01x33" type="passenger"/>
    <trip id="328" depart="213.20" from="yedge_09x22" to="xedge_09x20" type="passenger"/>
    <trip id="329" depart="213.85" from="yedge_14x11" to="yedge_15x18" type="passenger"/>
    <trip id="330" depart="214.50" from="yedge_03x08" to="yedge_00x14" type="passenger"/>
    <trip id="332" depart="215.80" from="xedge_19x18" to="xedge_15x30" type="passenger"/>
    <trip id="333" depart="216.45" from="xedge_02x10" to="xedge_09x29" type="passenger"/>
    <trip id="334" depart="217.10" from="yedge_00x02" to="xedge_02x39" type="passenger"/>
    <trip id="335" depart="217.75" from="yedge_11x13" to="yedge_07x20" type="passenger"/>
    <trip id="336" depart="218.40" from="yedge_07x04" to="xedge_15x09" type="passenger"/>
    <trip id="337" depart="219.05" from="yedge_09x29" to="xedge_01x11" type="passenger"/>
    <trip id="338" depart="219.70" from="yedge_07x12" to="yedge_10x09" type="passenger"/>
    <trip id="339" depart="220.35" from="yedge_02x00" to="yedge_16x00" type="passenger"/>
    <trip id="340" depart="221.00" from="xedge_18x30" to="xedge_07x04" type="passenger"/>
    <trip id="341" depart="221.65" from="yedge_12x05" to="xedge_18x33" type="passenger"/>
    <trip id="342" depart="222.30" from="xedge_16x32" to="xedge_12x09" type="passenger"/>
    <trip id="343" depart="222.95" from="xedge_15x14" to="yedge_18x05" type="passenger"/>
    <trip id="344" depart="223.60" from="xedge_03x21" to="xedge_16x34" type="passenger"/>
    <trip id="345" depart="224.25" from="yedge_03x06" to="xedge_19x19" type="passenger"/>
    <trip id="347" depart="225.55" from="yedge_18x10" to="yedge_04x17" type="passenger"/>
    <trip id="348" depart="226.20" from="xedge_10x33" to="yedge_15x20" type="passenger"/>
    <trip id="349" depart="226.85" from="yedge_18x17" to="xedge_08x02" type="passenger"/>
    <trip id="350" depart="227.50" from="xedge_13x07" to="xedge_02x32" type="passenger"/>
    <trip id="351" depart="228.15" from="xedge_06x26" to="xedge_18x12" type="passenger"/>
    <trip id="352" depart="228.80" from="xedge_14x23" to="xedge_11x38" type="passenger"/>
    <trip id="353" depart="229.45" from="xedge_07x38" to="yedge_13x00" type="passenger"/>
    <trip id="354" depart="230.10" from="yedge_02x06" to="yedge_06x23" type="passenger"/>
    <trip id="355" depart="230.75" from="yedge_06x26" to="xedge_12x34" type="passenger"/>
    <trip id="356" depart="231.40" from="xedge_01x18" to="yedge_10x34" type="passenger"/>