<?xml version="1.0"?>
<!-- generated on 2017-02-15 21:07:36.641000 by $Id: route2trips.py 20433 2016-04-13 08:00:14Z behrisch $ -->
<trips>
    <vType id="passenger" vClass="passenger"/>
    <trip id="0" depart="0.00" from="yedge_16x17" to="yedge_06x35" type="passenger"/>
    <trip id="1" depart="0.72" from="xedge_14x21" to="xedge_12x27" type="passenger"/>
    <trip id="2" depart="1.44" from="xedge_12x05" to="yedge_07x18" type="passenger"/>
    <trip id="3" depart="2.16" from="xedge_18x28" to="xedge_15x39" type="passenger"/>
    <trip id="4" depart="2.88" from="xedge_08x32" to="yedge_14x17" type="passenger"/>
    <trip id="5" depart="3.60" from="yedge_03x31" to="yedge_19x20" type="passenger"/>
    <trip id="6" depart="4.32" from="xedge_16x20" to="yedge_19x27" type="passenger"/>
    <trip id="7" depart="5.04" from="yedge_10x03" to="yedge_10x07" type="passenger"/>
    <trip id="8" depart="5.76" from="xedge_00x07" to="xedge_16x33" type="passenger"/>
    <trip id="9" depart="6.48" from="xedge_04x31" to="yedge_17x33" type="passenger"/>
    <trip id="10" depart="7.20" from="yedge_03x08" to="yedge_01x05" type="passenger"/>
    <trip id="11" depart="7.92" from="yedge_04x13" to="xedge_13x10" type="passenger"/>
    <trip id="12" depart="8.64" from="yedge_19x30" to="yedge_11x15" type="passenger"/>
    <trip id="13" depart="9.36" from="yedge_07x29" to="xedge_20x12" type="passenger"/>
    <trip id="14" depart="10.08" from="xedge_15x12" to="yedge_05x14" type="passenger"/>
    <trip id="15" depart="10.80" from="xedge_07x38" to="xedge_05x19" type="passenger"/>
    <trip id="16" depart="11.52" from="xedge_08x33" to="yedge_14x17" type="passenger"/>
    <trip id="17" depart="12.24" from="yedge_06x10" to="xedge_11x34" type="passenger"/>
    <trip id="18" depart="12.96" from="xedge_05x08" to="xedge_06x30" type="passenger"/>
    <trip id="19" depart="13.68" from="xedge_10x08" to="xedge_07x16" type="passenger"/>
    <trip id="20" depart="14.40" from="yedge_07x37" to="xedge_17x27" type="passenger"/>
    <trip id="21" depart="15.12" from="yedge_12x30" to="xedge_03x31" type="passenger"/>
    <trip id="22" depart="15.84" from="yedge_16x17" to="yedge_08x21" type="passenger"/>
    <trip id="23" depart="16.56" from="yedge_01x15" to="yedge_20x21" type="passenger"/>
    <trip id="24" depart="17.28" from="yedge_15x21" to="xedge_08x23" type="passenger"/>
    <trip id="25" depart="18.00" from="xedge_00x23" to="yedge_10x14" type="passenger"/>
    <trip id="26" depart="18.72" from="yedge_02x17" to="yedge_15x09" type="passenger"/>
    <trip id="27" depart="19.44" from="xedge_07x32" to="yedge_01x04" type="passenger"/>
    <trip id="28" depart="20.16" from="yedge_05x15" to="yedge_05x10" type="passenger"/>
    <trip id="29" depart="20.88" from="yedge_07x35" to="xedge_07x09" type="passenger"/>
    <trip id="30" depart="21.60" from="xedge_14x15" to="yedge_04x26" type="passenger"/>
    <trip id="31" depart="22.32" from="yedge_05x33" to="yedge_09x27" type="passenger"/>
    <trip id="32" depart="23.04" from="yedge_11x32" to="yedge_08x21" type="passenger"/>
    <trip id="33" depart="23.76" from="xedge_16x26" to="yedge_00x20" type="passenger"/>
    <trip id="34" depart="24.48" from="yedge_13x30" to="xedge_10x27" type="passenger"/>
    <trip id="35" depart="25.20" from="xedge_00x32" to="xedge_05x34" type="passenger"/>
    <trip id="36" depart="25.92" from="xedge_17x19" to="xedge_11x11" type="passenger"/>
    <trip id="37" depart="26.64" from="yedge_04x02" to="xedge_00x06" type="passenger"/>
    <trip id="38" depart="27.36" from="xedge_05x08" to="yedge_00x19" type="passenger"/>
    <trip id="39" depart="28.08" from="yedge_02x07" to="yedge_14x04" type="passenger"/>
    <trip id="40" depart="28.80" from="yedge_01x14" to="yedge_06x28" type="passenger"/>
    <trip id="41" depart="29.52" from="yedge_20x17" to="xedge_17x27" type="passenger"/>
    <trip id="42" depart="30.24" from="xedge_11x16" to="xedge_00x24" type="passenger"/>
    <trip id="43" depart="30.96" from="xedge_13x22" to="yedge_01x13" type="passenger"/>
    <trip id="45" depart="32.40" from="yedge_18x16" to="xedge_11x32" type="passenger"/>
    <trip id="46" depart="33.12" from="xedge_03x26" to="xedge_18x30" type="passenger"/>
    <trip id="47" depart="33.84" from="xedge_11x10" to="xedge_12x30" type="passenger"/>
    <trip id="48" depart="34.56" from="yedge_07x26" to="xedge_05x29" type="passenger"/>
    <trip id="49" depart="35.28" from="xedge_15x39" to="xedge_02x03" type="passenger"/>
    <trip id="50" depart="36.00" from="yedge_18x09" to="yedge_13x16" type="passenger"/>
    <trip id="51" depart="36.72" from="yedge_17x02" to="xedge_06x20" type="passenger"/>
    <trip id="52" depart="37.44" from="yedge_06x36" to="xedge_05x35" type="passenger"/>
    <trip id="53" depart="38.16" from="yedge_20x13" to="xedge_01x24" type="passenger"/>
    <trip id="54" depart="38.88" from="xedge_14x34" to="xedge_03x31" type="passenger"/>
    <trip id="55" depart="39.60" from="xedge_00x30" to="xedge_03x06" type="passenger"/>
    <trip id="57" depart="41.04" from="xedge_13x11" to="yedge_18x11" type="passenger"/>
    <trip id="58" depart="41.76" from="yedge_05x33" to="yedge_15x31" type="passenger"/>
    <trip id="60" depart="43.20" from="yedge_19x26" to="xedge_18x30" type="passenger"/>
    <trip id="61" depart="43.92" from="xedge_18x25" to="xedge_11x31" type="passenger"/>
    <trip id="62" depart="44.64" from="yedge_17x25" to="xedge_12x32" type="passenger"/>
    <trip id="63" depart="45.36" from="yedge_15x16" to="yedge_05x29" type="passenger"/>
    <trip id="64" depart="46.08" from="xedge_13x39" to="yedge_13x31" type="passenger"/>
    <trip id="65" depart="46.80" from="yedge_14x28" to="yedge_10x29" type="passenger"/>
    <trip id="66" depart="47.52" from="yedge_13x19" to="yedge_19x30" type="passenger"/>
    <trip id="67" depart="48.24" from="xedge_01x26" to="xedge_05x14" type="passenger"/>
    <trip id="68" depart="48.96" from="xedge_04x20" to="xedge_10x07" type="passenger"/>
    <trip id="69" depart="49.68" from="xedge_06x15" to="yedge_20x02" type="passenger"/>
    <trip id="70" depart="50.40" from="yedge_19x08" to="xedge_12x05" type="passenger"/>
    <trip id="72" depart="51.84" from="yedge_06x34" to="yedge_14x27" type="passenger"/>
    <trip id="73" depart="52.56" from="yedge_15x21" to="yedge_20x25" type="passenger"/>
    <trip id="74" depart="53.28" from="xedge_06x12" to="yedge_14x07" type="passenger"/>
    <trip id="75" depart="54.00" from="yedge_05x37" to="xedge_14x21" type="passenger"/>
    <trip id="76" depart="54.72" from="xedge_18x24" to="yedge_20x01" type="passenger"/>
    <trip id="78" depart="56.16" from="yedge_01x11" to="xedge_16x38" type="passenger"/>
    <trip id="79" depart="56.88" from="yedge_13x34" to="xedge_04x19" type="passenger"/>
    <trip id="80" depart="57.60" from="xedge_16x20" to="xedge_01x39" type="passenger"/>
    <trip id="81" depart="58.32" from="yedge_15x12" to="yedge_01x17" type="passenger"/>
    <trip id="83" depart="59.76" from="yedge_06x29" to="yedge_15x08" type="passenger"/>
    <trip id="84" depart="60.48" from="yedge_16x34" to="xedge_01x18" type="passenger"/>
    <trip id="85" depart="61.20" from="yedge_17x17" to="yedge_17x27" type="passenger"/>
    <trip id="86" depart="61.92" from="xedge_02x14" to="yedge_04x11" type="passenger"/>
    <trip id="87" depart="62.64" from="xedge_07x25" to="yedge_15x14" type="passenger"/>
    <trip id="88" depart="63.36" from="xedge_12x27" to="yedge_12x15" type="passenger"/>
    <trip id="89" depart="64.08" from="yedge_19x04" to="xedge_01x11" type="passenger"/>
    <trip id="90" depart="64.80" from="yedge_20x31" to="xedge_12x39" type="passenger"/>
    <trip id="91" depart="65.52" from="yedge_15x39" to="xedge_10x33" type="passenger"/>
    <trip id="92" depart="66.24" from="xedge_03x28" to="yedge_15x21" type="passenger"/>
    <trip id="93" depart="66.96" from="xedge_11x33" to="xedge_12x34" type="passenger"/>
    <trip id="94" depart="67.68" from="xedge_01x33" to="yedge_09x00" type="passenger"/>
    <trip id="95" depart="68.40" from="xedge_13x10" to="yedge_07x18" type="passenger"/>
    <trip id="96" depart="69.12" from="yedge_15x20" to="xedge_05x19" type="passenger"/>
    <trip id="97" depart="69.84" from="yedge_06x23" to="xedge_01x38" type="passenger"/>
    <trip id="98" depart="70.56" from="yedge_17x29" to="xedge_13x05" type="passenger"/>
    <trip id="99" depart="71.28" from="xedge_10x08" to="xedge_16x24" type="passenger"/>
    <trip id="100" depart="72.00" from="yedge_17x34" to="xedge_15x32" type="passenger"/>
    <trip id="101" depart="72.72" from="xedge_15x28" to="xedge_10x36" type="passenger"/>
    <trip id="102" depart="73.44" from="yedge_19x26" to="yedge_10x18" type="passenger"/>
    <trip id="103" depart="74.16" from="xedge_06x25" to="xedge_07x04" type="passenger"/>
    <trip id="104" depart="74.88" from="yedge_15x07" to="yedge_11x24" type="passenger"/>
    <trip id="105" depart="75.60" from="xedge_12x21" to="yedge_04x09" type="passenger"/>
    <trip id="106" depart="76.32" from="xedge_06x08" to="xedge_14x13" type="passenger"/>
    <trip id="107" depart="77.04" from="yedge_17x31" to="xedge_04x31" type="passenger"/>
    <trip id="108" depart="77.76" from="xedge_08x05" to="xedge_07x00" type="passenger"/>
    <trip id="109" depart="78.48" from="yedge_15x31" to="yedge_20x32" type="passenger"/>
    <trip id="110" depart="79.20" from="xedge_09x33" to="yedge_08x16" type="passenger"/>
    <trip id="111" depart="79.92" from="yedge_05x01" to="xedge_11x32" type="passenger"/>
    <trip id="112" depart="80.64" from="yedge_14x06" to="xedge_03x01" type="passenger"/>
    <trip id="113" depart="81.36" from="xedge_15x17" to="xedge_03x03" type="passenger"/>
    <trip id="114" depart="82.08" from="yedge_07x29" to="yedge_10x04" type="passenger"/>
    <trip id="115" depart="82.80" from="yedge_07x19" to="xedge_02x23" type="passenger"/>
    <trip id="119" depart="85.68" from="xedge_00x32" to="yedge_15x06" type="passenger"/>
    <trip id="120" depart="86.40" from="xedge_00x30" to="xedge_14x10" type="passenger"/>
    <trip id="121" depart="87.12" from="yedge_09x29" to="xedge_03x06" type="passenger"/>
    <trip id="122" depart="87.84" from="xedge_11x31" to="xedge_19x19" type="passenger"/>
    <trip id="123" depart="88.56" from="xedge_00x10" to="yedge_07x35" type="passenger"/>
    <trip id="125" depart="90.00" from="yedge_04x05" to="yedge_17x02" type="passenger"/>
    <trip id="126" depart="90.72" from="xedge_05x34" to="yedge_19x10" type="passenger"/>
    <trip id="127" depart="91.44" from="yedge_19x12" to="yedge_17x27" type="passenger"/>
    <trip id="128" depart="92.16" from="yedge_08x07" to="yedge_20x16" type="passenger"/>
    <trip id="129" depart="92.88" from="yedge_19x04" to="xedge_05x22" type="passenger"/>
    <trip id="130" depart="93.60" from="yedge_15x20" to="yedge_02x03" type="passenger"/>
    <trip id="131" depart="94.32" from="xedge_06x38" to="xedge_15x17" type="passenger"/>
    <trip id="132" depart="95.04" from="xedge_03x28" to="xedge_14x11" type="passenger"/>
    <trip id="133" depart="95.76" from="xedge_05x21" to="yedge_11x00" type="passenger"/>
    <trip id="134" depart="96.48" from="yedge_07x35" to="xedge_05x20" type="passenger"/>
    <trip id="135" depart="97.20" from="xedge_00x23" to="yedge_11x12" type="passenger"/>
    <trip id="136" depart="97.92" from="xedge_03x05" to="xedge_04x20" type="passenger"/>
    <trip id="137" depart="98.64" from="yedge_18x29" to="xedge_17x26" type="passenger"/>
    <trip id="138" depart="99.36" from="yedge_07x29" to="yedge_10x34" type="passenger"/>
    <trip id="139" depart="100.08" from="yedge_18x14" to="xedge_15x16" type="passenger"/>
    <trip id="140" depart="100.80" from="xedge_01x17" to="xedge_12x35" type="passenger"/>
    <trip id="141" depart="101.52" from="yedge_07x05" to="xedge_19x09" type="passenger"/>
    <trip id="142" depart="102.24" from="yedge_14x00" to="xedge_03x20" type="passenger"/>
    <trip id="144" depart="103.68" from="xedge_18x10" to="xedge_18x24" type="passenger"/>
    <trip id="145" depart="104.40" from="yedge_20x00" to="yedge_13x18" type="passenger"/>
    <trip id="146" depart="105.12" from="xedge_03x07" to="xedge_06x37" type="passenger"/>
    <trip id="147" depart="105.84" from="yedge_05x22" to="yedge_08x36" type="passenger"/>
    <trip id="148" depart="106.56" from="yedge_17x10" to="yedge_10x14" type="passenger"/>
    <trip id="150" depart="108.00" from="yedge_15x15" to="yedge_20x24" type="passenger"/>
    <trip id="151" depart="108.72" from="xedge_06x15" to="yedge_02x23" type="passenger"/>
    <trip id="152" depart="109.44" from="yedge_08x02" to="yedge_19x01" type="passenger"/>
    <trip id="153" depart="110.16" from="yedge_17x27" to="yedge_15x13" type="passenger"/>
    <trip id="154" depart="110.88" from="yedge_18x05" to="yedge_06x30" type="passenger"/>
    <trip id="155" depart="111.60" from="yedge_00x18" to="yedge_15x23" type="passenger"/>
    <trip id="156" depart="112.32" from="xedge_03x34" to="yedge_09x38" type="passenger"/>
    <trip id="157" depart="113.04" from="yedge_14x21" to="xedge_06x39" type="passenger"/>
    <trip id="158" depart="113.76" from="yedge_02x25" to="yedge_06x30" type="passenger"/>
    <trip id="159" depart="114.48" from="xedge_19x08" to="yedge_01x16" type="passenger"/>
    <trip id="161" depart="115.92" from="xedge_17x30" to="yedge_16x16" type="passenger"/>
    <trip id="162" depart="116.64" from="yedge_08x27" to="xedge_08x03" type="passenger"/>
    <trip id="163" depart="117.36" from="xedge_04x19" to="yedge_05x07" type="passenger"/>
    <trip id="164" depart="118.08" from="xedge_10x38" to="yedge_11x00" type="passenger"/>
    <trip id="165" depart="118.80" from="xedge_06x16" to="xedge_16x09" type="passenger"/>
    <trip id="166" depart="119.52" from="yedge_07x37" to="xedge_02x02" type="passenger"/>
    <trip id="167" depart="120.24" from="yedge_01x11" to="yedge_03x15" type="passenger"/>
    <trip id="168" depart="120.96" from="xedge_08x24" to="yedge_14x19" type="passenger"/>
    <trip id="169" depart="121.68" from="xedge_02x32" to="xedge_04x18" type="passenger"/>
    <trip id="170" depart="122.40" from="xedge_03x00" to="xedge_16x37" type="passenger"/>
    <trip id="171" depart="123.12" from="yedge_00x18" to="xedge_12x35" type="passenger"/>
    <trip id="172" depart="123.84" from="xedge_08x19" to="xedge_06x17" type="passenger"/>
    <trip id="174" depart="125.28" from="xedge_00x36" to="yedge_18x30" type="passenger"/>
    <trip id="175" depart="126.00" from="yedge_17x37" to="yedge_01x10" type="passenger"/>
    <trip id="176" depart="126.72" from="yedge_18x03" to="yedge_08x16" type="passenger"/>
    <trip id="177" depart="127.44" from="yedge_19x26" to="xedge_12x04" type="passenger"/>
    <trip id="180" depart="129.60" from="yedge_09x11" to="yedge_01x09" type="passenger"/>
    <trip id="181" depart="130.32" from="xedge_04x09" to="xedge_07x05" type="passenger"/>
    <trip id="182" depart="131.04" from="yedge_05x08" to="xedge_13x18" type="passenger"/>
    <trip id="183" depart="131.76" from="xedge_15x30" to="xedge_03x19" type="passenger"/>
    <trip id="184" depart="132.48" from="yedge_11x29" to="xedge_09x09" type="passenger"/>
    <trip id="185" depart="133.20" from="xedge_12x32" to="yedge_09x36" type="passenger"/>
    <trip id="186" depart="133.92" from="yedge_07x19" to="xedge_06x05" type="passenger"/>
    <trip id="187" depart="134.64" from="yedge_15x34" to="yedge_07x28" type="passenger"/>
    <trip id="188" depart="135.36" from="xedge_04x38" to="yedge_18x24" type="passenger"/>
    <trip id="189" depart="136.08" from="yedge_12x23" to="yedge_10x28" type="passenger"/>
    <trip id="190" depart="136.80" from="xedge_04x17" to="xedge_07x20" type="passenger"/>
    <trip id="191" depart="137.52" from="yedge_17x00" to="yedge_10x09" type="passenger"/>
    <trip id="192" depart="138.24" from="yedge_17x13" to="xedge_06x21" type="passenger"/>
    <trip id="193" depart="138.96" from="yedge_03x24" to="xedge_13x10" type="passenger"/>
    <trip id="194" depart="139.68" from="xedge_07x08" to="xedge_06x39" type="passenger"/>
    <trip id="195" depart="140.40" from="yedge_11x15" to="yedge_06x03" type="passenger"/>
    <trip id="196" depart="141.12" from="xedge_07x10" to="xedge_05x21" type="passenger"/>
    <trip id="197" depart="141.84" from="yedge_17x24" to="xedge_01x18" type="passenger"/>
    <trip id="198" depart="142.56" from="xedge_15x30" to="yedge_00x19" type="passenger"/>
    <trip id="199" depart="143.28" from="xedge_12x05" to="yedge_14x28" type="passenger"/>
    <trip id="200" depart="144.00" from="xedge_10x12" to="xedge_06x36" type="passenger"/>
    <trip id="202" depart="145.44" from="yedge_08x20" to="xedge_11x25" type="passenger"/>
    <trip id="203" depart="146.16" from="xedge_09x01" to="xedge_03x30" type="passenger"/>
    <trip id="204" depart="146.88" from="xedge_17x12" to="xedge_15x15" type="passenger"/>
    <trip id="206" depart="148.32" from="yedge_06x22" to="xedge_01x24" type="passenger"/>
    <trip id="208" depart="149.76" from="xedge_12x34" to="yedge_14x07" type="passenger"/>
    <trip id="209" depart="150.48" from="yedge_04x11" to="yedge_19x30" type="passenger"/>
    <trip id="210" depart="151.20" from="yedge_12x11" to="xedge_01x25" type="passenger"/>
    <trip id="211" depart="151.92" from="yedge_12x26" to="xedge_00x21" type="passenger"/>
    <trip id="212" depart="152.64" from="xedge_17x27" to="xedge_05x36" type="passenger"/>
    <trip id="213" depart="153.36" from="yedge_16x07" to="yedge_18x29" type="passenger"/>
    <trip id="214" depart="154.08" from="xedge_05x08" to="xedge_03x16" type="passenger"/>
    <trip id="215" depart="154.80" from="yedge_07x18" to="yedge_06x21" type="passenger"/>
    <trip id="216" depart="155.52" from="yedge_07x01" to="xedge_10x27" type="passenger"/>
    <trip id="218" depart="156.96" from="yedge_10x13" to="yedge_06x34" type="passenger"/>
    <trip id="219" depart="157.68" from="yedge_12x32" to="yedge_01x04" type="passenger"/>
    <trip id="220" depart="158.40" from="xedge_18x12" to="yedge_15x07" type="passenger"/>
    <trip id="221" depart="159.12" from="xedge_14x15" to="yedge_14x07" type="passenger"/>
    <trip id="222" depart="159.84" from="yedge_04x20" to="yedge_03x02" type="passenger"/>
    <trip id="223" depart="160.56" from="xedge_09x01" to="yedge_00x05" type="passenger"/>
    <trip id="224" depart="161.28" from="xedge_12x38" to="xedge_06x18" type="passenger"/>
    <trip id="225" depart="162.00" from="xedge_08x18" to="xedge_05x16" type="passenger"/>
    <trip id="226" depart="162.72" from="xedge_18x28" to="yedge_18x16" type="passenger"/>
    <trip id="227" depart="163.44" from="xedge_03x31" to="yedge_05x11" type="passenger"/>
    <trip id="228" depart="164.16" from="xedge_07x04" to="xedge_03x02" type="passenger"/>
    <trip id="229" depart="164.88" from="yedge_15x06" to="xedge_13x19" type="passenger"/>
    <trip id="230" depart="165.60" from="yedge_08x29" to="xedge_01x27" type="passenger"/>
    <trip id="231" depart="166.32" from="yedge_18x18" to="xedge_15x08" type="passenger"/>
    <trip id="232" depart="167.04" from="xedge_04x36" to="yedge_15x09" type="passenger"/>
    <trip id="233" depart="167.76" from="yedge_16x19" to="xedge_06x15" type="passenger"/>
    <trip id="234" depart="168.48" from="yedge_14x20" to="yedge_18x30" type="passenger"/>
    <trip id="235" depart="169.20" from="yedge_03x10" to="xedge_11x36" type="passenger"/>
    <trip id="236" depart="169.92" from="xedge_11x09" to="xedge_13x39" type="passenger"/>
    <trip id="237" depart="170.64" from="yedge_15x12" to="xedge_09x39" type="passenger"/>
    <trip id="238" depart="171.36" from="xedge_04x25" to="yedge_17x09" type="passenger"/>
    <trip id="239" depart="172.08" from="yedge_11x31" to="xedge_03x13" type="passenger"/>
    <trip id="240" depart="172.80" from="xedge_13x10" to="xedge_10x24" type="passenger"/>
    <trip id="241" depart="173.52" from="xedge_05x19" to="xedge_12x32" type="passenger"/>
    <trip id="242" depart="174.24" from="yedge_09x26" to="yedge_07x18" type="passenger"/>
    <trip id="243" depart="174.96" from="xedge_09x00" to="yedge_07x21" type="passenger"/>
    <trip id="244" depart="175.68" from="xedge_16x27" to="xedge_09x08" type="passenger"/>
    <trip id="245" depart="176.40" from="yedge_11x33" to="yedge_15x17" type="passenger"/>
    <trip id="246" depart="177.12" from="yedge_03x10" to="xedge_01x21" type="passenger"/>
    <trip id="248" depart="178.56" from="xedge_15x37" to="yedge_18x30" type="passenger"/>
    <trip id="249" depart="179.28" from="xedge_06x13" to="xedge_02x36" type="passenger"/>
    <trip id="250" depart="180.00" from="yedge_12x10" to="yedge_18x30" type="passenger"/>
    <trip id="251" depart="180.72" from="xedge_14x37" to="yedge_20x10" type="passenger"/>
    <trip id="253" depart="182.16" from="yedge_07x01" to="yedge_15x17" type="passenger"/>
    <trip id="254" depart="182.88" from="xedge_06x18" to="xedge_06x12" type="passenger"/>
    <trip id="255" depart="183.60" from="xedge_01x25" to="yedge_05x07" type="passenger"/>
    <trip id="256" depart="184.32" from="xedge_06x39" to="xedge_11x35" type="passenger"/>
    <trip id="257" depart="185.04" from="xedge_14x13" to="yedge_11x25" type="passenger"/>
    <trip id="258" depart="185.76" from="xedge_03x10" to="xedge_06x12" type="passenger"/>
    <trip id="260" depart="187.20" from="xedge_04x36" to="yedge_15x22" type="passenger"/>
    <trip id="261" depart="187.92" from="yedge_17x33" to="xedge_09x08" type="passenger"/>
    <trip id="262" depart="188.64" from="yedge_19x12" to="yedge_19x30" type="passenger"/>
    <trip id="263" depart="189.36" from="yedge_02x16" to="yedge_01x14" type="passenger"/>
    <trip id="264" depart="190.08" from="xedge_00x05" to="yedge_00x00" type="passenger"/>
    <trip id="265" depart="190.80" from="yedge_15x01" to="xedge_16x34" type="passenger"/>
    <trip id="266" depart="191.52" from="xedge_11x05" to="xedge_11x11" type="passenger"/>
    <trip id="267" depart="192.24" from="xedge_18x31" to="xedge_05x20" type="passenger"/>
    <trip id="268" depart="192.96" from="yedge_02x17" to="yedge_14x21" type="passenger"/>
    <trip id="269" depart="193.68" from="xedge_04x31" to="yedge_02x01" type="passenger"/>
    <trip id="270" depart="194.40" from="yedge_06x23" to="yedge_20x13" type="passenger"/>
    <trip id="271" depart="195.12" from="yedge_02x13" to="xedge_01x21" type="passenger"/>
    <trip id="272" depart="195.84" from="xedge_14x17" to="yedge_18x11" type="passenger"/>
    <trip id="275" depart="198.00" from="xedge_08x03" to="yedge_03x01" type="passenger"/>
    <trip id="276" depart="198.72" from="yedge_04x31" to="xedge_05x25" type="passenger"/>
    <trip id="277" depart="199.44" from="yedge_03x11" to="yedge_12x15" type="passenger"/>
    <trip id="278" depart="200.16" from="xedge_14x23" to="yedge_06x34" type="passenger"/>
    <trip id="279" depart="200.88" from="yedge_09x16" to="xedge_06x05" type="passenger"/>
    <trip id="280" depart="201.60" from="yedge_04x10" to="xedge_17x12" type="passenger"/>
    <trip id="281" depart="202.32" from="yedge_17x08" to="yedge_05x14" type="passenger"/>
    <trip id="282" depart="203.04" from="yedge_04x13" to="xedge_12x05" type="passenger"/>
    <trip id="283" depart="203.76" from="xedge_06x26" to="xedge_04x23" type="passenger"/>
    <trip id="284" depart="204.48" from="yedge_15x13" to="yedge_05x18" type="passenger"/>
    <trip id="285" depart="205.20" from="xedge_08x18" to="yedge_07x00" type="passenger"/>
    <trip id="288" depart="207.36" from="yedge_14x05" to="yedge_15x19" type="passenger"/>
    <trip id="289" depart="208.08" from="xedge_11x38" to="xedge_11x24" type="passenger"/>
    <trip id="290" depart="208.80" from="xedge_04x18" to="yedge_08x28" type="passenger"/>
    <trip id="291" depart="209.52" from="xedge_06x13" to="yedge_16x01" type="passenger"/>
    <trip id="292" depart="210.24" from="xedge_16x21" to="yedge_11x14" type="passenger"/>
    <trip id="293" depart="210.96" from="yedge_07x19" to="xedge_10x25" type="passenger"/>
    <trip id="294" depart="211.68" from="yedge_20x32" to="yedge_03x22" type="passenger"/>
    <trip id="296" depart="213.12" from="yedge_17x29" to="yedge_15x30" type="passenger"/>
    <trip id="297" depart="213.84" from="yedge_06x16" to="yedge_09x27" type="passenger"/>
    <trip id="298" depart="214.56" from="yedge_06x38" to="xedge_15x30" type="passenger"/>
    <trip id="299" depart="215.28" from="yedge_07x11" to="xedge_18x10" type="passenger"/>
    <trip id="301" depart="216.72" from="yedge_12x24" to="yedge_02x01" type="passenger"/>
    <trip id="302" depart="217.44" from="yedge_10x05" to="xedge_15x33" type="passenger"/>
    <trip id="303" depart="218.16" from="xedge_14x35" to="xedge_01x16" type="passenger"/>
    <trip id="304" depart="218.88" from="xedge_15x38" to="yedge_18x22" type="passenger"/>
    <trip id="305" depart="219.60" from="xedge_11x17" to="xedge_12x30" type="passenger"/>
    <trip id="306" depart="220.32" from="xedge_02x37" to="yedge_10x38" type="passenger"/>
    <trip id="307" depart="221.04" from="xedge_10x24" to="xedge_03x01" type="passenger"/>
    <trip id="308" depart="221.76" from="xedge_10x08" to="xedge_10x25" type="passenger"/>
    <trip id="309" depart="222.48" from="yedge_07x36" to="xedge_01x01" type="passenger"/>
    <trip id="310" depart="223.20" from="yedge_05x26" to="yedge_08x11" type="passenger"/>
    <trip id="312" depart="224.64" from="yedge_15x39" to="yedge_10x18" type="passenger"/>
    <trip id="313" depart="225.36" from="yedge_15x19" to="xedge_08x22" type="passenger"/>
    <trip id="314" depart="226.08" from="xedge_07x06" to="yedge_10x14" type="passenger"/>
    <trip id="315" depart="226.80" from="yedge_08x01" to="xedge_04x28" type="passenger"/>
    <trip id="316" depart="227.52" from="yedge_18x14" to="yedge_13x01" type="passenger"/>
    <trip id="317" depart="228.24" from="xedge_07x32" to="xedge_15x20" type="passenger"/>
    <trip id="318" depart="228.96" from="xedge_09x03" to="yedge_10x24" type="passenger"/>
    <trip id="319" depart="229.68" from="xedge_20x19" to="xedge_02x16" type="passenger"/>
    <trip id="320" depart="230.40" from="xedge_03x31" to="yedge_15x34" type="passenger"/>
    <trip id="321" depart="231.12" from="xedge_09x00" to="yedge_05x11" type="passenger"/>
    <trip id="322" depart="231.84" from="xedge_11x04" to="yedge_09x29" type="passenger"/>
    <trip id="323" depart="232.56" from="xedge_16x17" to="yedge_12x14" type="passenger"/>
    <trip id="324" depart="233.28" from="xedge_16x25" to="xedge_05x26" type="passenger"/>
    <trip id="325" depart="234.00" from="yedge_20x02" to="yedge_16x17" type="passenger"/>
    <trip id="326" depart="234.72" from="xedge_00x21" to="xedge_00x13" type="passenger"/>
    <trip id="327" depart="235.44" from="xedge_18x25" to="yedge_17x10" type="passenger"/>
    <trip id="328" depart="236.16" from="yedge_14x06" to="yedge_04x37" type="passenger"/>
    <trip id="329" depart="236.88" from="yedge_12x26" to="yedge_15x35" type="passenger"/>
    <trip id="330" depart="237.60" from="yedge_09x11" to="yedge_09x16" type="passenger"/>
    <trip id="331" depart="238.32" from="yedge_06x35" to="yedge_00x05" type="passenger"/>
    <trip id="332" depart="239.04" from="xedge_04x04" to="yedge_05x29" type="passenger"/>
    <trip id="333" depart="239.76" from="xedge_17x30" to="yedge_02x06" type="passenger"/>
    <trip id="334" depart="240.48" from="xedge_00x20" to="yedge_06x02" type="passenger"/>
    <trip id="335" depart="241.20" from="xedge_08x02" to="xedge_09x02" type="passenger"/>
    <trip id="336" depart="241.92" from="yedge_09x37" to="xedge_04x24" type="passenger"/>
    <trip id="337" depart="242.64" from="xedge_12x26" to="xedge_04x18" type="passenger"/>
    <trip id="338" depart="243.36" from="yedge_14x23" to="yedge_09x38" type="passenger"/>
    <trip id="339" depart="244.08" from="yedge_09x35" to="yedge_01x04" type="passenger"/>
    <trip id="340" depart="244.80" from="yedge_07x12" to="yedge_02x17" type="passenger"/>
    <trip id="341" depart="245.52" from="xedge_15x32" to="yedge_19x11" type="passenger"/>
    <trip id="342" depart="246.24" from="yedge_09x36" to="xedge_03x07" type="passenger"/>
    <trip id="343" depart="246.96" from="xedge_03x13" to="xedge_07x21" type="passenger"/>
    <trip id="344" depart="247.68" from="xedge_11x15" to="yedge_01x10" type="passenger"/>
    <trip id="345" depart="248.40" from="xedge_03x07" to="xedge_07x00" type="passenger"/>
    <trip id="346" depart="249.12" from="xedge_00x20" to="yedge_17x12" type="passenger"/>
    <trip id="347" depart="249.84" from="xedge_20x17" to="yedge_15x37" type="passenger"/>
    <trip id="348" depart="250.56" from="xedge_14x19" to="yedge_14x29" type="passenger"/>
    <trip id="349" depart="251.28" from="xedge_16x08" to="yedge_11x30" type="passenger"/>
    <trip id="350" depart="252.00" from="yedge_03x23" to="yedge_19x30" type="passenger"/>
    <trip id="351" depart="252.72" from="xedge_03x11" to="xedge_17x18" type="passenger"/>
    <trip id="352" depart="253.44" from="yedge_14x31" to="yedge_06x38" type="passenger"/>
    <trip id="353" depart="254.16" from="yedge_09x25" to="yedge_13x22" type="passenger"/>
    <trip id="354" depart="254.88" from="xedge_05x16" to="xedge_12x31" type="passenger"/>
    <trip id="355" depart="255.60" from="xedge_20x17" to="yedge_00x11" type="passenger"/>
    <trip id="356" depart="256.32" from="xedge_04x17" to="xedge_11x37" type="passenger"/>
    <trip id="357" depart="257.04" from="yedge_03x25" to="yedge_15x15" type="passenger"/>
    <trip id="358" depart="257.76" from="xedge_06x01" to="yedge_03x25" type="passenger"/>
    <trip id="359" depart="258.48" from="xedge_02x10" to="yedge_06x34" type="passenger"/>
    <trip id="360" depart="259.20" from="xedge_14x26" to="yedge_09x00" type="passenger"/>
    <trip id="362" depart="260.64" from="xedge_03x19" to="yedge_06x21" type="passenger"/>
    <trip id="363" depart="261.36" from="xedge_02x12" to="xedge_17x12" type="passenger"/>
    <trip id="364" depart="262.08" from="xedge_03x31" to="yedge_04x12" type="passenger"/>