<?xml version='1.0' encoding='UTF-8'?>
<nodes xmlns:xsi="http://www.w3.org/2001/XMLSchema-instance" version="0.27" xsi:noNamespaceSchemaLocation="http://sumo.dlr.de/xsd/edges_file.xsd"><node avg_slowdown_ratio="0.71382289417" id="node_12x10" junction="True" old_x="1200.0" old_y="1000.0" type="right_before_left" weight_num="4.0" weight_sum="2.85529157668" x="1430.94290283" x_displacement_sum="230.942902832" y="1016.51771897" y_displacement_sum="16.5177189747" />
    <node avg_slowdown_ratio="0.711663066955" id="node_12x11" junction="True" old_x="1200.0" old_y="1100.0" type="right_before_left" weight_num="4.0" weight_sum="2.84665226782" x="1410.09508245" x_displacement_sum="210.095082447" y="1247.70783383" y_displacement_sum="147.70783383" />
    <node avg_slowdown_ratio="0.710043196545" id="node_10x08" junction="True" old_x="1000.0" old_y="800.0" type="right_before_left" weight_num="4.0" weight_sum="2.84017278618" x="961.207296624" x_displacement_sum="-38.7927033765" y="552.743173875" y_displacement_sum="-247.256826125" />
    <node avg_slowdown_ratio="0.674046076315" id="node_11x11" junction="True" old_x="1100.0" old_y="1100.0" type="right_before_left" weight_num="4.0" weight_sum="2.69618430526" x="1203.55799567" x_displacement_sum="103.557995673" y="1269.65128592" y_displacement_sum="169.651285922" />
    <node avg_slowdown_ratio="0.65172786177" id="node_10x07" junction="True" old_x="1000.0" old_y="700.0" type="right_before_left" weight_num="4.0" weight_sum="2.60691144708" x="954.836478426" x_displacement_sum="-45.1635215738" y="369.673330159" y_displacement_sum="-330.326669841" />
    <node avg_slowdown_ratio="0.649028077753" id="node_10x09" junction="True" old_x="1000.0" old_y="900.0" type="right_before_left" weight_num="4.0" weight_sum="2.59611231101" x="972.729252718" x_displacement_sum="-27.2707472819" y="767.700845607" y_displacement_sum="-132.299154393" />
    <node avg_slowdown_ratio="0.645968322535" id="node_11x10" junction="True" old_x="1100.0" old_y="1000.0" type="right_before_left" weight_num="4.0" weight_sum="2.58387329014" x="1210.82082919" x_displacement_sum="110.820829193" y="1023.89658694" y_displacement_sum="23.8965869362" />
    <node avg_slowdown_ratio="0.641828653707" id="node_12x12" junction="True" old_x="1200.0" old_y="1200.0" type="right_before_left" weight_num="4.0" weight_sum="2.56731461483" x="1382.37915705" x_displacement_sum="182.379157052" y="1460.2103346" y_displacement_sum="260.210334601" />
    <node avg_slowdown_ratio="0.640568754497" id="node_11x12" junction="True" old_x="1100.0" old_y="1200.0" type="right_before_left" weight_num="4.0" weight_sum="2.56227501799" x="1188.01277389" x_displacement_sum="88.0127738936" y="1482.7040511" y_displacement_sum="282.704051104" />
    <node avg_slowdown_ratio="0.638048956085" id="node_12x09" junction="True" old_x="1200.0" old_y="900.0" type="right_before_left" weight_num="4.0" weight_sum="2.55219582434" x="1435.19759668" x_displacement_sum="235.197596675" y="777.400881705" y_displacement_sum="-122.599118295" />
    <node avg_slowdown_ratio="0.632109431245" id="node_10x11" junction="True" old_x="1000.0" old_y="1100.0" type="right_before_left" weight_num="4.0" weight_sum="2.52843772498" x="986.751408805" x_displacement_sum="-13.2485911953" y="1273.31254187" y_displacement_sum="173.312541869" />
    <node avg_slowdown_ratio="0.628329733622" id="node_08x07" junction="True" old_x="800.0" old_y="700.0" type="right_before_left" weight_num="4.0" weight_sum="2.51331893449" x="552.472505751" x_displacement_sum="-247.527494249" y="403.871722175" y_displacement_sum="-296.128277825" />
    <node avg_slowdown_ratio="0.624730021598" id="node_10x10" junction="True" old_x="1000.0" old_y="1000.0" type="right_before_left" weight_num="4.0" weight_sum="2.49892008639" x="981.126223378" x_displacement_sum="-18.8737766224" y="1021.6981729" y_displacement_sum="21.6981729" />
    <node avg_slowdown_ratio="0.621310295175" id="node_09x07" junction="True" old_x="900.0" old_y="700.0" type="right_before_left" weight_num="4.0" weight_sum="2.4852411807" x="744.185465224" x_displacement_sum="-155.814534776" y="378.452437679" y_displacement_sum="-321.547562321" />
    <node avg_slowdown_ratio="0.620230381567" id="node_09x08" junction="True" old_x="900.0" old_y="800.0" type="right_before_left" weight_num="4.0" weight_sum="2.48092152627" x="729.383256826" x_displacement_sum="-170.616743174" y="550.644501067" y_displacement_sum="-249.355498933" />
    <node avg_slowdown_ratio="0.613750899927" id="node_13x10" junction="True" old_x="1300.0" old_y="1000.0" type="right_before_left" weight_num="4.0" weight_sum="2.45500359971" x="1620.38876046" x_displacement_sum="320.388760464" y="1004.47947321" y_displacement_sum="4.47947320936" />
    <node avg_slowdown_ratio="0.613390928728" id="node_10x12" junction="True" old_x="1000.0" old_y="1200.0" type="right_before_left" weight_num="4.0" weight_sum="2.45356371491" x="983.722891513" x_displacement_sum="-16.2771084872" y="1495.20235369" y_displacement_sum="295.202353693" />
    <node avg_slowdown_ratio="0.613030957525" id="node_08x08" junction="True" old_x="800.0" old_y="800.0" type="right_before_left" weight_num="4.0" weight_sum="2.4521238301" x="526.703463775" x_displacement_sum="-273.296536225" y="565.25865432" y_displacement_sum="-234.74134568" />
    <node avg_slowdown_ratio="0.61069114471" id="node_11x08" junction="True" old_x="1100.0" old_y="800.0" type="right_before_left" weight_num="4.0" weight_sum="2.44276457884" x="1202.53355594" x_displacement_sum="102.53355594" y="564.286323664" y_displacement_sum="-235.713676336" />
    <node avg_slowdown_ratio="0.6094312455" id="node_11x09" junction="True" old_x="1100.0" old_y="900.0" type="right_before_left" weight_num="4.0" weight_sum="2.437724982" x="1210.35172239" x_displacement_sum="110.35172239" y="774.288391142" y_displacement_sum="-125.711608858" />
    <node avg_slowdown_ratio="0.60781137509" id="node_07x09" junction="True" old_x="700.0" old_y="900.0" type="right_before_left" weight_num="4.0" weight_sum="2.43124550036" x="337.568581559" x_displacement_sum="-362.431418441" y="770.654560992" y_displacement_sum="-129.345439008" />
    <node avg_slowdown_ratio="0.60637149028" id="node_07x08" junction="True" old_x="700.0" old_y="800.0" type="right_before_left" weight_num="4.0" weight_sum="2.42548596112" x="361.100920434" x_displacement_sum="-338.899079566" y="592.098512655" y_displacement_sum="-207.901487345" />
    <node avg_slowdown_ratio="0.60025197984" id="node_13x11" junction="True" old_x="1300.0" old_y="1100.0" type="right_before_left" weight_num="4.0" weight_sum="2.40100791936" x="1602.66297417" x_displacement_sum="302.662974166" y="1223.82072789" y_displacement_sum="123.820727889" />
    <node avg_slowdown_ratio="0.59521238301" id="node_09x11" junction="True" old_x="900.0" old_y="1100.0" type="right_before_left" weight_num="4.0" weight_sum="2.38084953204" x="753.114413617" x_displacement_sum="-146.885586383" y="1263.7011254" y_displacement_sum="163.701125398" />
    <node avg_slowdown_ratio="0.589632829375" id="node_09x12" junction="True" old_x="900.0" old_y="1200.0" type="right_before_left" weight_num="4.0" weight_sum="2.3585313175" x="771.869717075" x_displacement_sum="-128.130282925" y="1488.3184593" y_displacement_sum="288.318459304" />
    <node avg_slowdown_ratio="0.589452843772" id="node_08x09" junction="True" old_x="800.0" old_y="900.0" type="right_before_left" weight_num="4.0" weight_sum="2.35781137509" x="510.524094614" x_displacement_sum="-289.475905386" y="758.740641788" y_displacement_sum="-141.259358212" />
    <node avg_slowdown_ratio="0.58747300216" id="node_12x08" junction="True" old_x="1200.0" old_y="800.0" type="right_before_left" weight_num="4.0" weight_sum="2.34989200864" x="1426.94196102" x_displacement_sum="226.941961018" y="578.933734666" y_displacement_sum="-221.066265334" />
    <node avg_slowdown_ratio="0.58603311735" id="node_08x13" junction="True" old_x="800.0" old_y="1300.0" type="right_before_left" weight_num="4.0" weight_sum="2.3441324694" x="614.946443356" x_displacement_sum="-185.053556644" y="1624.73499956" y_displacement_sum="324.734999561" />
    <node avg_slowdown_ratio="0.585673146147" id="node_07x13" junction="True" old_x="700.0" old_y="1300.0" type="right_before_left" weight_num="4.0" weight_sum="2.34269258459" x="459.592627892" x_displacement_sum="-240.407372108" y="1570.55489541" y_displacement_sum="270.554895409" />
    <node avg_slowdown_ratio="0.585673146147" id="node_08x11" junction="True" old_x="800.0" old_y="1100.0" type="right_before_left" weight_num="4.0" weight_sum="2.34269258459" x="530.694711501" x_displacement_sum="-269.305288499" y="1241.49575872" y_displacement_sum="141.495758717" />
    <node avg_slowdown_ratio="0.583873290138" id="node_14x10" junction="True" old_x="1400.0" old_y="1000.0" type="right_before_left" weight_num="4.0" weight_sum="2.33549316055" x="1790.34719614" x_displacement_sum="390.347196135" y="995.359353918" y_displacement_sum="-4.64064608186" />
    <node avg_slowdown_ratio="0.58279337653" id="node_07x11" junction="True" old_x="700.0" old_y="1100.0" type="right_before_left" weight_num="4.0" weight_sum="2.33117350612" x="353.485037672" x_displacement_sum="-346.514962328" y="1209.77562581" y_displacement_sum="109.775625808" />
    <node avg_slowdown_ratio="0.582253419725" id="node_09x10" junction="True" old_x="900.0" old_y="1000.0" type="right_before_left" weight_num="4.0" weight_sum="2.3290136789" x="737.775869689" x_displacement_sum="-162.224130311" y="1011.52085866" y_displacement_sum="11.520858663" />
    <node avg_slowdown_ratio="0.581173506122" id="node_11x13" junction="True" old_x="1100.0" old_y="1300.0" type="right_before_left" weight_num="4.0" weight_sum="2.32469402449" x="1170.80644596" x_displacement_sum="70.8064459561" y="1666.66359186" y_displacement_sum="366.663591862" />
    <node avg_slowdown_ratio="0.580453563715" id="node_08x10" junction="True" old_x="800.0" old_y="1000.0" type="right_before_left" weight_num="4.0" weight_sum="2.32181425486" x="512.819897207" x_displacement_sum="-287.180102793" y="999.885549341" y_displacement_sum="-0.114450659057" />
    <node avg_slowdown_ratio="0.57667386609" id="node_06x13" junction="True" old_x="600.0" old_y="1300.0" type="right_before_left" weight_num="4.0" weight_sum="2.30669546436" x="331.759039249" x_displacement_sum="-268.240960751" y="1503.93074375" y_displacement_sum="203.930743754" />
    <node avg_slowdown_ratio="0.576313894887" id="node_10x13" junction="True" old_x="1000.0" old_y="1300.0" type="right_before_left" weight_num="4.0" weight_sum="2.30525557955" x="981.873203219" x_displacement_sum="-18.1267967806" y="1672.25661331" y_displacement_sum="372.256613315" />
    <node avg_slowdown_ratio="0.571634269255" id="node_07x10" junction="True" old_x="700.0" old_y="1000.0" type="right_before_left" weight_num="4.0" weight_sum="2.28653707702" x="333.48947766" x_displacement_sum="-366.51052234" y="991.749254" y_displacement_sum="-8.25074599969" />
    <node avg_slowdown_ratio="0.570914326852" id="node_11x07" junction="True" old_x="1100.0" old_y="700.0" type="right_before_left" weight_num="4.0" weight_sum="2.28365730741" x="1186.7409996" x_displacement_sum="86.7409996048" y="381.07567801" y_displacement_sum="-318.92432199" />
    <node avg_slowdown_ratio="0.56119510439" id="node_15x11" junction="True" old_x="1500.0" old_y="1100.0" type="right_before_left" weight_num="4.0" weight_sum="2.24478041756" x="1903.5107315" x_displacement_sum="403.510731501" y="1174.58243489" y_displacement_sum="74.5824348911" />
    <node avg_slowdown_ratio="0.560655147588" id="node_08x12" junction="True" old_x="800.0" old_y="1200.0" type="right_before_left" weight_num="4.0" weight_sum="2.24262059035" x="569.373795091" x_displacement_sum="-230.626204909" y="1455.9548191" y_displacement_sum="255.9548191" />
    <node avg_slowdown_ratio="0.55957523398" id="node_09x09" junction="True" old_x="900.0" old_y="900.0" type="right_before_left" weight_num="4.0" weight_sum="2.23830093592" x="727.434587478" x_displacement_sum="-172.565412522" y="758.638241468" y_displacement_sum="-141.361758532" />
    <node avg_slowdown_ratio="0.559035277178" id="node_06x11" junction="True" old_x="600.0" old_y="1100.0" type="right_before_left" weight_num="4.0" weight_sum="2.23614110871" x="226.171669066" x_displacement_sum="-373.828330934" y="1177.5112046" y_displacement_sum="77.5112045951" />
    <node avg_slowdown_ratio="0.558135349172" id="node_13x07" junction="True" old_x="1300.0" old_y="700.0" type="right_before_left" weight_num="4.0" weight_sum="2.23254139669" x="1589.23070395" x_displacement_sum="289.230703952" y="429.96348431" y_displacement_sum="-270.03651569" />
    <node avg_slowdown_ratio="0.55813534917" id="node_13x09" junction="True" old_x="1300.0" old_y="900.0" type="right_before_left" weight_num="4.0" weight_sum="2.23254139668" x="1623.62380517" x_displacement_sum="323.623805166" y="778.640755709" y_displacement_sum="-121.359244291" />
    <node avg_slowdown_ratio="0.55471562275" id="node_11x06" junction="True" old_x="1100.0" old_y="600.0" type="right_before_left" weight_num="4.0" weight_sum="2.218862491" x="1172.73235742" x_displacement_sum="72.7323574157" y="228.834631055" y_displacement_sum="-371.165368945" />
    <node avg_slowdown_ratio="0.551835853133" id="node_06x12" junction="True" old_x="600.0" old_y="1200.0" type="right_before_left" weight_num="4.0" weight_sum="2.20734341253" x="270.804897832" x_displacement_sum="-329.195102168" y="1348.11500813" y_displacement_sum="148.115008126" />
    <node avg_slowdown_ratio="0.550755939528" id="node_13x12" junction="True" old_x="1300.0" old_y="1200.0" type="right_before_left" weight_num="4.0" weight_sum="2.20302375811" x="1571.60329394" x_displacement_sum="271.603293938" y="1426.93104876" y_displacement_sum="226.931048757" />
    <node avg_slowdown_ratio="0.547876169907" id="node_12x13" junction="True" old_x="1200.0" old_y="1300.0" type="right_before_left" weight_num="4.0" weight_sum="2.19150467963" x="1356.57763834" x_displacement_sum="156.577638342" y="1646.12077004" y_displacement_sum="346.120770041" />
    <node avg_slowdown_ratio="0.54247660187" id="node_09x13" junction="True" old_x="900.0" old_y="1300.0" type="right_before_left" weight_num="4.0" weight_sum="2.16990640748" x="793.461775442" x_displacement_sum="-106.538224558" y="1659.95556958" y_displacement_sum="359.955569575" />
    <node avg_slowdown_ratio="0.541936645067" id="node_13x13" junction="True" old_x="1300.0" old_y="1300.0" type="right_before_left" weight_num="4.0" weight_sum="2.16774658027" x="1536.45949878" x_displacement_sum="236.459498783" y="1616.17625149" y_displacement_sum="316.176251488" />
    <node avg_slowdown_ratio="0.541216702665" id="node_07x12" junction="True" old_x="700.0" old_y="1200.0" type="right_before_left" weight_num="4.0" weight_sum="2.16486681066" x="398.635704244" x_displacement_sum="-301.364295756" y="1403.34931514" y_displacement_sum="203.349315137" />
    <node avg_slowdown_ratio="0.537796976243" id="node_10x05" junction="True" old_x="1000.0" old_y="500.0" type="right_before_left" weight_num="4.0" weight_sum="2.15118790497" x="966.643274623" x_displacement_sum="-33.3567253773" y="113.476534115" y_displacement_sum="-386.523465885" />
    <node avg_slowdown_ratio="0.53437724982" id="node_10x06" junction="True" old_x="1000.0" old_y="600.0" type="right_before_left" weight_num="4.0" weight_sum="2.13750899928" x="959.038877369" x_displacement_sum="-40.9611226313" y="228.528416573" y_displacement_sum="-371.471583427" />
    <node avg_slowdown_ratio="0.533837293015" id="node_15x12" junction="True" old_x="1500.0" old_y="1200.0" type="right_before_left" weight_num="4.0" weight_sum="2.13534917206" x="1872.16382167" x_displacement_sum="372.163821668" y="1347.16034367" y_displacement_sum="147.16034367" />
    <node avg_slowdown_ratio="0.531137508998" id="node_06x10" junction="True" old_x="600.0" old_y="1000.0" type="right_before_left" weight_num="4.0" weight_sum="2.12455003599" x="207.068187445" x_displacement_sum="-392.931812555" y="985.526192433" y_displacement_sum="-14.4738075669" />
    <node avg_slowdown_ratio="0.528977681788" id="node_12x04" junction="True" old_x="1200.0" old_y="400.0" type="right_before_left" weight_num="4.0" weight_sum="2.11591072715" x="1308.27373518" x_displacement_sum="108.273735181" y="63.802095872" y_displacement_sum="-336.197904128" />
    <node avg_slowdown_ratio="0.526997840175" id="node_11x14" junction="True" old_x="1100.0" old_y="1400.0" type="right_before_left" weight_num="4.0" weight_sum="2.1079913607" x="1161.7551405" x_displacement_sum="61.7551405014" y="1806.41604744" y_displacement_sum="406.416047444" />
    <node avg_slowdown_ratio="0.52609791217" id="node_13x08" junction="True" old_x="1300.0" old_y="800.0" type="right_before_left" weight_num="4.0" weight_sum="2.10439164868" x="1611.75885858" x_displacement_sum="311.758858584" y="594.077163163" y_displacement_sum="-205.922836837" />
    <node avg_slowdown_ratio="0.52051835853" id="node_06x08" junction="True" old_x="600.0" old_y="800.0" type="right_before_left" weight_num="4.0" weight_sum="2.08207343412" x="243.713783016" x_displacement_sum="-356.286216984" y="627.245864455" y_displacement_sum="-172.754135545" />
    <node avg_slowdown_ratio="0.519438444923" id="node_14x07" junction="True" old_x="1400.0" old_y="700.0" type="right_before_left" weight_num="4.0" weight_sum="2.07775377969" x="1728.56606717" x_displacement_sum="328.566067168" y="468.034090678" y_displacement_sum="-231.965909322" />
    <node avg_slowdown_ratio="0.519078473723" id="node_14x08" junction="True" old_x="1400.0" old_y="800.0" type="right_before_left" weight_num="4.0" weight_sum="2.07631389489" x="1762.86284699" x_displacement_sum="362.862846988" y="616.563105235" y_displacement_sum="-183.436894765" />
    <node avg_slowdown_ratio="0.517818574513" id="node_13x06" junction="True" old_x="1300.0" old_y="600.0" type="right_before_left" weight_num="4.0" weight_sum="2.07127429805" x="1549.11092822" x_displacement_sum="249.110928223" y="290.281183234" y_displacement_sum="-309.718816766" />
    <node avg_slowdown_ratio="0.51745860331" id="node_05x11" junction="True" old_x="500.0" old_y="1100.0" type="right_before_left" weight_num="4.0" weight_sum="2.06983441324" x="135.139638411" x_displacement_sum="-364.860361589" y="1145.57018797" y_displacement_sum="45.5701879722" />
    <node avg_slowdown_ratio="0.516918646507" id="node_14x11" junction="True" old_x="1400.0" old_y="1100.0" type="right_before_left" weight_num="4.0" weight_sum="2.06767458603" x="1775.88605723" x_displacement_sum="375.886057233" y="1197.75158082" y_displacement_sum="97.7515808152" />
    <node avg_slowdown_ratio="0.514938804897" id="node_14x12" junction="True" old_x="1400.0" old_y="1200.0" type="right_before_left" weight_num="4.0" weight_sum="2.05975521959" x="1742.86559666" x_displacement_sum="342.865596659" y="1390.66500962" y_displacement_sum="190.665009617" />
    <node avg_slowdown_ratio="0.513138948885" id="node_15x10" junction="True" old_x="1500.0" old_y="1000.0" type="right_before_left" weight_num="4.0" weight_sum="2.05255579554" x="1919.20787097" x_displacement_sum="419.207870974" y="989.783872918" y_displacement_sum="-10.2161270823" />
    <node avg_slowdown_ratio="0.508999280057" id="node_12x07" junction="True" old_x="1200.0" old_y="700.0" type="right_before_left" weight_num="4.0" weight_sum="2.03599712023" x="1406.66437447" x_displacement_sum="206.664374466" y="400.901847132" y_displacement_sum="-299.098152868" />
    <node avg_slowdown_ratio="0.505579553635" id="node_11x04" junction="True" old_x="1100.0" old_y="400.0" type="right_before_left" weight_num="4.0" weight_sum="2.02231821454" x="1148.06171553" x_displacement_sum="48.0617155298" y="40.224409093" y_displacement_sum="-359.775590907" />
    <node avg_slowdown_ratio="0.50485961123" id="node_12x06" junction="True" old_x="1200.0" old_y="600.0" type="right_before_left" weight_num="4.0" weight_sum="2.01943844492" x="1379.55094093" x_displacement_sum="179.550940935" y="252.454783165" y_displacement_sum="-347.545216835" />
    <node avg_slowdown_ratio="0.504319654428" id="node_11x05" junction="True" old_x="1100.0" old_y="500.0" type="right_before_left" weight_num="4.0" weight_sum="2.01727861771" x="1161.41371604" x_displacement_sum="61.4137160419" y="115.565374132" y_displacement_sum="-384.434625868" />
    <node avg_slowdown_ratio="0.502699784018" id="node_05x12" junction="True" old_x="500.0" old_y="1200.0" type="right_before_left" weight_num="4.0" weight_sum="2.01079913607" x="171.609808462" x_displacement_sum="-328.390191538" y="1297.20836094" y_displacement_sum="97.2083609371" />
    <node avg_slowdown_ratio="0.5" id="node_10x15" junction="True" old_x="1000.0" old_y="1500.0" type="right_before_left" weight_num="4.0" weight_sum="2.0" x="995.844702703" x_displacement_sum="-4.15529729653" y="1899.05188162" y_displacement_sum="399.051881618" />
    <node avg_slowdown_ratio="0.499999999997" id="node_14x06" junction="True" old_x="1400.0" old_y="600.0" type="right_before_left" weight_num="4.0" weight_sum="1.99999999999" x="1677.81315896" x_displacement_sum="277.813158964" y="339.821060387" y_displacement_sum="-260.178939613" />
    <node avg_slowdown_ratio="0.499640028798" id="node_06x09" junction="True" old_x="600.0" old_y="900.0" type="right_before_left" weight_num="4.0" weight_sum="1.99856011519" x="214.282625785" x_displacement_sum="-385.717374215" y="786.270831437" y_displacement_sum="-113.729168563" />
    <node avg_slowdown_ratio="0.499640028795" id="node_14x13" junction="True" old_x="1400.0" old_y="1300.0" type="right_before_left" weight_num="4.0" weight_sum="1.99856011518" x="1696.25087857" x_displacement_sum="296.250878572" y="1572.34403696" y_displacement_sum="272.344036959" />
    <node avg_slowdown_ratio="0.498740100792" id="node_08x06" junction="True" old_x="800.0" old_y="600.0" type="right_before_left" weight_num="4.0" weight_sum="1.99496040317" x="584.109700955" x_displacement_sum="-215.890299045" y="269.15593515" y_displacement_sum="-330.84406485" />
    <node avg_slowdown_ratio="0.497480201583" id="node_07x14" junction="True" old_x="700.0" old_y="1400.0" type="right_before_left" weight_num="4.0" weight_sum="1.98992080633" x="521.239415013" x_displacement_sum="-178.760584987" y="1700.47241202" y_displacement_sum="300.472412018" />
    <node avg_slowdown_ratio="0.497300215983" id="node_06x07" junction="True" old_x="600.0" old_y="700.0" type="right_before_left" weight_num="4.0" weight_sum="1.98920086393" x="283.355621577" x_displacement_sum="-316.644378423" y="486.031477601" y_displacement_sum="-213.968522399" />
    <node avg_slowdown_ratio="0.497120230382" id="node_08x15" junction="True" old_x="800.0" old_y="1500.0" type="right_before_left" weight_num="4.0" weight_sum="1.98848092153" x="706.289438956" x_displacement_sum="-93.7105610439" y="1844.60834203" y_displacement_sum="344.608342027" />
    <node avg_slowdown_ratio="0.49496040317" id="node_16x11" junction="True" old_x="1600.0" old_y="1100.0" type="right_before_left" weight_num="4.0" weight_sum="1.97984161268" x="1978.80761783" x_displacement_sum="378.80761783" y="1151.82077658" y_displacement_sum="51.8207765777" />
    <node avg_slowdown_ratio="0.493160547158" id="node_10x04" junction="True" old_x="1000.0" old_y="400.0" type="right_before_left" weight_num="4.0" weight_sum="1.97264218863" x="971.99396877" x_displacement_sum="-28.0060312296" y="34.714754209" y_displacement_sum="-365.285245791" />
    <node avg_slowdown_ratio="0.49226061915" id="node_05x13" junction="True" old_x="500.0" old_y="1300.0" type="right_before_left" weight_num="4.0" weight_sum="1.9690424766" x="220.417377483" x_displacement_sum="-279.582622517" y="1444.67313489" y_displacement_sum="144.673134893" />
    <node avg_slowdown_ratio="0.487580993523" id="node_13x15" junction="True" old_x="1300.0" old_y="1500.0" type="right_before_left" weight_num="4.0" weight_sum="1.95032397409" x="1466.40939639" x_displacement_sum="166.409396385" y="1852.39517661" y_displacement_sum="352.395176614" />
    <node avg_slowdown_ratio="0.486501079915" id="node_07x15" junction="True" old_x="700.0" old_y="1500.0" type="right_before_left" weight_num="4.0" weight_sum="1.94600431966" x="575.76875936" x_displacement_sum="-124.23124064" y="1798.54503709" y_displacement_sum="298.545037095" />
    <node avg_slowdown_ratio="0.486141108712" id="node_09x06" junction="True" old_x="900.0" old_y="600.0" type="right_before_left" weight_num="4.0" weight_sum="1.94456443485" x="761.556654368" x_displacement_sum="-138.443345632" y="242.012672154" y_displacement_sum="-357.987327846" />
    <node avg_slowdown_ratio="0.486141108712" id="node_11x15" junction="True" old_x="1100.0" old_y="1500.0" type="right_before_left" weight_num="4.0" weight_sum="1.94456443485" x="1153.5378277" x_displacement_sum="53.5378277013" y="1896.17126885" y_displacement_sum="396.171268849" />
    <node avg_slowdown_ratio="0.48614110871" id="node_07x07" junction="True" old_x="700.0" old_y="700.0" type="right_before_left" weight_num="4.0" weight_sum="1.94456443484" x="399.44428767" x_displacement_sum="-300.55571233" y="440.600822976" y_displacement_sum="-259.399177024" />
    <node avg_slowdown_ratio="0.4843412527" id="node_09x15" junction="True" old_x="900.0" old_y="1500.0" type="right_before_left" weight_num="4.0" weight_sum="1.9373650108" x="842.694610523" x_displacement_sum="-57.3053894768" y="1881.19232837" y_displacement_sum="381.192328375" />
    <node avg_slowdown_ratio="0.48164146868" id="node_13x05" junction="True" old_x="1300.0" old_y="500.0" type="right_before_left" weight_num="4.0" weight_sum="1.92656587472" x="1500.81299216" x_displacement_sum="200.812992163" y="183.641432038" y_displacement_sum="-316.358567962" />
    <node avg_slowdown_ratio="0.480381569475" id="node_10x14" junction="True" old_x="1000.0" old_y="1400.0" type="right_before_left" weight_num="4.0" weight_sum="1.9215262779" x="988.447125844" x_displacement_sum="-11.5528741559" y="1805.83179117" y_displacement_sum="405.831791173" />
    <node avg_slowdown_ratio="0.480201583873" id="node_04x07" junction="True" old_x="400.0" old_y="700.0" type="right_before_left" weight_num="4.0" weight_sum="1.92080633549" x="119.531137543" x_displacement_sum="-280.468862457" y="580.352129258" y_displacement_sum="-119.647870742" />
    <node avg_slowdown_ratio="0.479301655868" id="node_09x05" junction="True" old_x="900.0" old_y="500.0" type="right_before_left" weight_num="4.0" weight_sum="1.91720662347" x="784.594262651" x_displacement_sum="-115.405737349" y="127.765877853" y_displacement_sum="-372.234122147" />
    <node avg_slowdown_ratio="0.47822174226" id="node_12x15" junction="True" old_x="1200.0" old_y="1500.0" type="right_before_left" weight_num="4.0" weight_sum="1.91288696904" x="1311.95053304" x_displacement_sum="111.950533042" y="1880.29648803" y_displacement_sum="380.296488028" />
    <node avg_slowdown_ratio="0.47660187185" id="node_05x07" junction="True" old_x="500.0" old_y="700.0" type="right_before_left" weight_num="4.0" weight_sum="1.9064074874" x="191.41172539" x_displacement_sum="-308.58827461" y="529.748717419" y_displacement_sum="-170.251282581" />
    <node avg_slowdown_ratio="0.475881929445" id="node_08x14" junction="True" old_x="800.0" old_y="1400.0" type="right_before_left" weight_num="4.0" weight_sum="1.90352771778" x="663.262298931" x_displacement_sum="-136.737701069" y="1753.69589919" y_displacement_sum="353.695899189" />
    <node avg_slowdown_ratio="0.47516198704" id="node_16x12" junction="True" old_x="1600.0" old_y="1200.0" type="right_before_left" weight_num="4.0" weight_sum="1.90064794816" x="1952.72389011" x_displacement_sum="352.72389011" y="1310.71343157" y_displacement_sum="110.71343157" />
    <node avg_slowdown_ratio="0.473902087835" id="node_12x14" junction="True" old_x="1200.0" old_y="1400.0" type="right_before_left" weight_num="4.0" weight_sum="1.89560835134" x="1336.0677468" x_displacement_sum="136.067746799" y="1792.16455474" y_displacement_sum="392.164554741" />
    <node avg_slowdown_ratio="0.473902087832" id="node_13x14" junction="True" old_x="1300.0" old_y="1400.0" type="right_before_left" weight_num="4.0" weight_sum="1.89560835133" x="1498.1510057" x_displacement_sum="198.151005701" y="1765.70295334" y_displacement_sum="365.702953342" />
    <node avg_slowdown_ratio="0.472642188628" id="node_13x04" junction="True" old_x="1300.0" old_y="400.0" type="right_before_left" weight_num="4.0" weight_sum="1.89056875451" x="1448.30096967" x_displacement_sum="148.300969673" y="106.69138334" y_displacement_sum="-293.30861666" />
    <node avg_slowdown_ratio="0.47210223182" id="node_05x14" junction="True" old_x="500.0" old_y="1400.0" type="right_before_left" weight_num="4.0" weight_sum="1.88840892728" x="269.789216022" x_displacement_sum="-230.210783978" y="1585.74468657" y_displacement_sum="185.744686573" />
    <node avg_slowdown_ratio="0.47210223182" id="node_06x15" junction="True" old_x="600.0" old_y="1500.0" type="right_before_left" weight_num="4.0" weight_sum="1.88840892728" x="449.354288496" x_displacement_sum="-150.645711504" y="1748.25978145" y_displacement_sum="248.259781446" />
    <node avg_slowdown_ratio="0.468142548597" id="node_04x11" junction="True" old_x="400.0" old_y="1100.0" type="right_before_left" weight_num="4.0" weight_sum="1.87257019439" x="58.80119418" x_displacement_sum="-341.19880582" y="1117.07186448" y_displacement_sum="17.0718644848" />
    <node avg_slowdown_ratio="0.467602591793" id="node_15x07" junction="True" old_x="1500.0" old_y="700.0" type="right_before_left" weight_num="4.0" weight_sum="1.87041036717" x="1833.05996953" x_displacement_sum="333.05996953" y="516.714311923" y_displacement_sum="-183.285688077" />