<?xml version='1.0' encoding='UTF-8'?>
<nodes xmlns:xsi="http://www.w3.org/2001/XMLSchema-instance" version="0.27" xsi:noNamespaceSchemaLocation="http://sumo.dlr.de/xsd/edges_file.xsd"><node avg_slowdown_ratio="0.71382289417" id="node_12x10" junction="True" old_x="1200.0" old_y="1000.0" type="right_before_left" weight_num="4.0" weight_sum="2.85529157668" x="1204.83173755" x_displacement_sum="4.83173755129" y="994.08892033" y_displacement_sum="-5.91107966954" />
    <node avg_slowdown_ratio="0.711663066955" id="node_12x11" junction="True" old_x="1200.0" old_y="1100.0" type="right_before_left" weight_num="4.0" weight_sum="2.84665226782" x="1206.28897333" x_displacement_sum="6.2889733318" y="1104.6707287" y_displacement_sum="4.67072870196" />
    <node avg_slowdown_ratio="0.710043196545" id="node_10x08" junction="True" old_x="1000.0" old_y="800.0" type="right_before_left" weight_num="4.0" weight_sum="2.84017278618" x="1000.41581846" x_displacement_sum="0.415818457027" y="800.597909096" y_displacement_sum="0.597909095693" />
    <node avg_slowdown_ratio="0.674046076315" id="node_11x11" junction="True" old_x="1100.0" old_y="1100.0" type="right_before_left" weight_num="4.0" weight_sum="2.69618430526" x="1093.92580622" x_displacement_sum="-6.07419378314" y="1102.58994355" y_displacement_sum="2.58994355151" />
    <node avg_slowdown_ratio="0.65172786177" id="node_10x07" junction="True" old_x="1000.0" old_y="700.0" type="right_before_left" weight_num="4.0" weight_sum="2.60691144708" x="1000.67931091" x_displacement_sum="0.679310907368" y="688.132062022" y_displacement_sum="-11.8679379782" />
    <node avg_slowdown_ratio="0.649028077753" id="node_10x09" junction="True" old_x="1000.0" old_y="900.0" type="right_before_left" weight_num="4.0" weight_sum="2.59611231101" x="995.935117528" x_displacement_sum="-4.06488247161" y="903.160416674" y_displacement_sum="3.16041667367" />
    <node avg_slowdown_ratio="0.645968322535" id="node_11x10" junction="True" old_x="1100.0" old_y="1000.0" type="right_before_left" weight_num="4.0" weight_sum="2.58387329014" x="1095.08743812" x_displacement_sum="-4.91256188024" y="996.043037848" y_displacement_sum="-3.95696215193" />
    <node avg_slowdown_ratio="0.641828653707" id="node_12x12" junction="True" old_x="1200.0" old_y="1200.0" type="right_before_left" weight_num="4.0" weight_sum="2.56731461483" x="1206.5351849" x_displacement_sum="6.5351848981" y="1212.32873073" y_displacement_sum="12.3287307313" />
    <node avg_slowdown_ratio="0.640568754497" id="node_11x12" junction="True" old_x="1100.0" old_y="1200.0" type="right_before_left" weight_num="4.0" weight_sum="2.56227501799" x="1097.31241236" x_displacement_sum="-2.68758763991" y="1210.32141319" y_displacement_sum="10.3214131914" />
    <node avg_slowdown_ratio="0.638048956085" id="node_12x09" junction="True" old_x="1200.0" old_y="900.0" type="right_before_left" weight_num="4.0" weight_sum="2.55219582434" x="1205.94081489" x_displacement_sum="5.94081488801" y="890.163982351" y_displacement_sum="-9.83601764899" />
    <node avg_slowdown_ratio="0.632109431245" id="node_10x11" junction="True" old_x="1000.0" old_y="1100.0" type="right_before_left" weight_num="4.0" weight_sum="2.52843772498" x="991.435523311" x_displacement_sum="-8.56447668906" y="1101.04692248" y_displacement_sum="1.04692248146" />
    <node avg_slowdown_ratio="0.628329733622" id="node_08x07" junction="True" old_x="800.0" old_y="700.0" type="right_before_left" weight_num="4.0" weight_sum="2.51331893449" x="792.961394688" x_displacement_sum="-7.0386053116" y="688.332772291" y_displacement_sum="-11.667227709" />
    <node avg_slowdown_ratio="0.624730021598" id="node_10x10" junction="True" old_x="1000.0" old_y="1000.0" type="right_before_left" weight_num="4.0" weight_sum="2.49892008639" x="991.504725355" x_displacement_sum="-8.4952746449" y="999.686396522" y_displacement_sum="-0.313603478103" />
    <node avg_slowdown_ratio="0.621310295175" id="node_09x07" junction="True" old_x="900.0" old_y="700.0" type="right_before_left" weight_num="4.0" weight_sum="2.4852411807" x="895.552284621" x_displacement_sum="-4.44771537853" y="686.919325933" y_displacement_sum="-13.0806740668" />
    <node avg_slowdown_ratio="0.620230381567" id="node_09x08" junction="True" old_x="900.0" old_y="800.0" type="right_before_left" weight_num="4.0" weight_sum="2.48092152627" x="894.265154261" x_displacement_sum="-5.7348457394" y="803.476958714" y_displacement_sum="3.47695871431" />
    <node avg_slowdown_ratio="0.613750899927" id="node_13x10" junction="True" old_x="1300.0" old_y="1000.0" type="right_before_left" weight_num="4.0" weight_sum="2.45500359971" x="1314.77900469" x_displacement_sum="14.7790046928" y="995.252387617" y_displacement_sum="-4.74761238308" />
    <node avg_slowdown_ratio="0.613390928728" id="node_10x12" junction="True" old_x="1000.0" old_y="1200.0" type="right_before_left" weight_num="4.0" weight_sum="2.45356371491" x="994.160910198" x_displacement_sum="-5.83908980236" y="1206.42712195" y_displacement_sum="6.42712194948" />
    <node avg_slowdown_ratio="0.613030957525" id="node_08x08" junction="True" old_x="800.0" old_y="800.0" type="right_before_left" weight_num="4.0" weight_sum="2.4521238301" x="795.219135043" x_displacement_sum="-4.78086495732" y="800.029852208" y_displacement_sum="0.0298522076235" />
    <node avg_slowdown_ratio="0.61069114471" id="node_11x08" junction="True" old_x="1100.0" old_y="800.0" type="right_before_left" weight_num="4.0" weight_sum="2.44276457884" x="1108.41538294" x_displacement_sum="8.415382939" y="794.35960412" y_displacement_sum="-5.64039587992" />
    <node avg_slowdown_ratio="0.6094312455" id="node_11x09" junction="True" old_x="1100.0" old_y="900.0" type="right_before_left" weight_num="4.0" weight_sum="2.437724982" x="1101.18431621" x_displacement_sum="1.18431621219" y="896.185057956" y_displacement_sum="-3.81494204399" />
    <node avg_slowdown_ratio="0.60781137509" id="node_07x09" junction="True" old_x="700.0" old_y="900.0" type="right_before_left" weight_num="4.0" weight_sum="2.43124550036" x="692.702169443" x_displacement_sum="-7.29783055681" y="901.948807412" y_displacement_sum="1.94880741168" />
    <node avg_slowdown_ratio="0.60637149028" id="node_07x08" junction="True" old_x="700.0" old_y="800.0" type="right_before_left" weight_num="4.0" weight_sum="2.42548596112" x="690.59908515" x_displacement_sum="-9.40091484974" y="796.351470736" y_displacement_sum="-3.64852926405" />
    <node avg_slowdown_ratio="0.60025197984" id="node_13x11" junction="True" old_x="1300.0" old_y="1100.0" type="right_before_left" weight_num="4.0" weight_sum="2.40100791936" x="1315.30786408" x_displacement_sum="15.3078640838" y="1106.22693584" y_displacement_sum="6.22693584417" />
    <node avg_slowdown_ratio="0.59521238301" id="node_09x11" junction="True" old_x="900.0" old_y="1100.0" type="right_before_left" weight_num="4.0" weight_sum="2.38084953204" x="894.493926316" x_displacement_sum="-5.5060736839" y="1100.59139723" y_displacement_sum="0.591397226457" />
    <node avg_slowdown_ratio="0.589632829375" id="node_09x12" junction="True" old_x="900.0" old_y="1200.0" type="right_before_left" weight_num="4.0" weight_sum="2.3585313175" x="896.614883609" x_displacement_sum="-3.38511639062" y="1203.57120367" y_displacement_sum="3.5712036678" />
    <node avg_slowdown_ratio="0.589452843772" id="node_08x09" junction="True" old_x="800.0" old_y="900.0" type="right_before_left" weight_num="4.0" weight_sum="2.35781137509" x="800.314498435" x_displacement_sum="0.314498435419" y="903.577623248" y_displacement_sum="3.57762324837" />
    <node avg_slowdown_ratio="0.58747300216" id="node_12x08" junction="True" old_x="1200.0" old_y="800.0" type="right_before_left" weight_num="4.0" weight_sum="2.34989200864" x="1207.10578314" x_displacement_sum="7.1057831447" y="791.809741489" y_displacement_sum="-8.19025851088" />
    <node avg_slowdown_ratio="0.58603311735" id="node_08x13" junction="True" old_x="800.0" old_y="1300.0" type="right_before_left" weight_num="4.0" weight_sum="2.3441324694" x="800.906311803" x_displacement_sum="0.906311803449" y="1307.34592608" y_displacement_sum="7.34592607708" />
    <node avg_slowdown_ratio="0.585673146147" id="node_07x13" junction="True" old_x="700.0" old_y="1300.0" type="right_before_left" weight_num="4.0" weight_sum="2.34269258459" x="698.974557565" x_displacement_sum="-1.02544243486" y="1305.92424526" y_displacement_sum="5.92424526089" />
    <node avg_slowdown_ratio="0.585673146147" id="node_08x11" junction="True" old_x="800.0" old_y="1100.0" type="right_before_left" weight_num="4.0" weight_sum="2.34269258459" x="797.690244706" x_displacement_sum="-2.30975529384" y="1101.35991205" y_displacement_sum="1.35991204913" />
    <node avg_slowdown_ratio="0.583873290138" id="node_14x10" junction="True" old_x="1400.0" old_y="1000.0" type="right_before_left" weight_num="4.0" weight_sum="2.33549316055" x="1409.62632587" x_displacement_sum="9.62632586542" y="994.328703197" y_displacement_sum="-5.67129680299" />
    <node avg_slowdown_ratio="0.58279337653" id="node_07x11" junction="True" old_x="700.0" old_y="1100.0" type="right_before_left" weight_num="4.0" weight_sum="2.33117350612" x="697.437516763" x_displacement_sum="-2.56248323685" y="1101.18834359" y_displacement_sum="1.18834359042" />
    <node avg_slowdown_ratio="0.582253419725" id="node_09x10" junction="True" old_x="900.0" old_y="1000.0" type="right_before_left" weight_num="4.0" weight_sum="2.3290136789" x="894.752618597" x_displacement_sum="-5.24738140251" y="999.625762263" y_displacement_sum="-0.374237737099" />
    <node avg_slowdown_ratio="0.581173506122" id="node_11x13" junction="True" old_x="1100.0" old_y="1300.0" type="right_before_left" weight_num="4.0" weight_sum="2.32469402449" x="1100.23912383" x_displacement_sum="0.239123829695" y="1313.34104036" y_displacement_sum="13.3410403584" />
    <node avg_slowdown_ratio="0.580453563715" id="node_08x10" junction="True" old_x="800.0" old_y="1000.0" type="right_before_left" weight_num="4.0" weight_sum="2.32181425486" x="800.450113815" x_displacement_sum="0.450113815383" y="999.900085254" y_displacement_sum="-0.0999147455933" />
    <node avg_slowdown_ratio="0.57667386609" id="node_06x13" junction="True" old_x="600.0" old_y="1300.0" type="right_before_left" weight_num="4.0" weight_sum="2.30669546436" x="594.931356653" x_displacement_sum="-5.06864334671" y="1305.95795622" y_displacement_sum="5.95795622489" />
    <node avg_slowdown_ratio="0.576313894887" id="node_10x13" junction="True" old_x="1000.0" old_y="1300.0" type="right_before_left" weight_num="4.0" weight_sum="2.30525557955" x="995.806135145" x_displacement_sum="-4.193864855" y="1311.44558829" y_displacement_sum="11.4455882882" />
    <node avg_slowdown_ratio="0.571634269255" id="node_07x10" junction="True" old_x="700.0" old_y="1000.0" type="right_before_left" weight_num="4.0" weight_sum="2.28653707702" x="695.056475379" x_displacement_sum="-4.94352462068" y="999.56345326" y_displacement_sum="-0.43654673973" />
    <node avg_slowdown_ratio="0.570914326852" id="node_11x07" junction="True" old_x="1100.0" old_y="700.0" type="right_before_left" weight_num="4.0" weight_sum="2.28365730741" x="1109.66846836" x_displacement_sum="9.66846835787" y="690.811664553" y_displacement_sum="-9.18833544727" />
    <node avg_slowdown_ratio="0.56119510439" id="node_15x11" junction="True" old_x="1500.0" old_y="1100.0" type="right_before_left" weight_num="4.0" weight_sum="2.24478041756" x="1504.79052699" x_displacement_sum="4.79052699459" y="1100.56524671" y_displacement_sum="0.565246714986" />
    <node avg_slowdown_ratio="0.560655147588" id="node_08x12" junction="True" old_x="800.0" old_y="1200.0" type="right_before_left" weight_num="4.0" weight_sum="2.24262059035" x="798.937036896" x_displacement_sum="-1.06296310443" y="1201.34599874" y_displacement_sum="1.34599873928" />
    <node avg_slowdown_ratio="0.55957523398" id="node_09x09" junction="True" old_x="900.0" old_y="900.0" type="right_before_left" weight_num="4.0" weight_sum="2.23830093592" x="893.817409769" x_displacement_sum="-6.18259023101" y="904.861494018" y_displacement_sum="4.86149401766" />
    <node avg_slowdown_ratio="0.559035277178" id="node_06x11" junction="True" old_x="600.0" old_y="1100.0" type="right_before_left" weight_num="4.0" weight_sum="2.23614110871" x="594.095285926" x_displacement_sum="-5.90471407379" y="1099.31817968" y_displacement_sum="-0.681820322713" />
    <node avg_slowdown_ratio="0.558135349172" id="node_13x07" junction="True" old_x="1300.0" old_y="700.0" type="right_before_left" weight_num="4.0" weight_sum="2.23254139669" x="1301.50497167" x_displacement_sum="1.50497167197" y="697.087596817" y_displacement_sum="-2.91240318347" />
    <node avg_slowdown_ratio="0.55813534917" id="node_13x09" junction="True" old_x="1300.0" old_y="900.0" type="right_before_left" weight_num="4.0" weight_sum="2.23254139668" x="1312.34909396" x_displacement_sum="12.3490939644" y="891.061340793" y_displacement_sum="-8.93865920651" />
    <node avg_slowdown_ratio="0.55471562275" id="node_11x06" junction="True" old_x="1100.0" old_y="600.0" type="right_before_left" weight_num="4.0" weight_sum="2.218862491" x="1107.0718289" x_displacement_sum="7.07182890376" y="592.743512286" y_displacement_sum="-7.25648771427" />
    <node avg_slowdown_ratio="0.551835853133" id="node_06x12" junction="True" old_x="600.0" old_y="1200.0" type="right_before_left" weight_num="4.0" weight_sum="2.20734341253" x="594.391316352" x_displacement_sum="-5.60868364799" y="1199.81666676" y_displacement_sum="-0.183333244589" />
    <node avg_slowdown_ratio="0.550755939528" id="node_13x12" junction="True" old_x="1300.0" old_y="1200.0" type="right_before_left" weight_num="4.0" weight_sum="2.20302375811" x="1311.88959395" x_displacement_sum="11.8895939545" y="1207.60712331" y_displacement_sum="7.60712331398" />
    <node avg_slowdown_ratio="0.547876169907" id="node_12x13" junction="True" old_x="1200.0" old_y="1300.0" type="right_before_left" weight_num="4.0" weight_sum="2.19150467963" x="1205.16896531" x_displacement_sum="5.16896530722" y="1313.48185261" y_displacement_sum="13.4818526147" />
    <node avg_slowdown_ratio="0.54247660187" id="node_09x13" junction="True" old_x="900.0" old_y="1300.0" type="right_before_left" weight_num="4.0" weight_sum="2.16990640748" x="898.810555071" x_displacement_sum="-1.18944492882" y="1310.17804442" y_displacement_sum="10.1780444236" />
    <node avg_slowdown_ratio="0.541936645067" id="node_13x13" junction="True" old_x="1300.0" old_y="1300.0" type="right_before_left" weight_num="4.0" weight_sum="2.16774658027" x="1305.95310471" x_displacement_sum="5.95310470621" y="1308.9735653" y_displacement_sum="8.97356530006" />
    <node avg_slowdown_ratio="0.541216702665" id="node_07x12" junction="True" old_x="700.0" old_y="1200.0" type="right_before_left" weight_num="4.0" weight_sum="2.16486681066" x="698.66805971" x_displacement_sum="-1.33194028989" y="1199.39981313" y_displacement_sum="-0.60018686689" />
    <node avg_slowdown_ratio="0.537796976243" id="node_10x05" junction="True" old_x="1000.0" old_y="500.0" type="right_before_left" weight_num="4.0" weight_sum="2.15118790497" x="996.428534657" x_displacement_sum="-3.57146534283" y="496.05132781" y_displacement_sum="-3.94867219032" />
    <node avg_slowdown_ratio="0.53437724982" id="node_10x06" junction="True" old_x="1000.0" old_y="600.0" type="right_before_left" weight_num="4.0" weight_sum="2.13750899928" x="998.191891052" x_displacement_sum="-1.80810894802" y="588.335672094" y_displacement_sum="-11.6643279056" />
    <node avg_slowdown_ratio="0.533837293015" id="node_15x12" junction="True" old_x="1500.0" old_y="1200.0" type="right_before_left" weight_num="4.0" weight_sum="2.13534917206" x="1503.10043407" x_displacement_sum="3.10043407" y="1206.12551357" y_displacement_sum="6.12551356867" />
    <node avg_slowdown_ratio="0.531137508998" id="node_06x10" junction="True" old_x="600.0" old_y="1000.0" type="right_before_left" weight_num="4.0" weight_sum="2.12455003599" x="590.313431681" x_displacement_sum="-9.68656831911" y="996.956974912" y_displacement_sum="-3.04302508834" />
    <node avg_slowdown_ratio="0.528977681788" id="node_12x04" junction="True" old_x="1200.0" old_y="400.0" type="right_before_left" weight_num="4.0" weight_sum="2.11591072715" x="1201.81021534" x_displacement_sum="1.81021534102" y="395.531962397" y_displacement_sum="-4.46803760252" />
    <node avg_slowdown_ratio="0.526997840175" id="node_11x14" junction="True" old_x="1100.0" old_y="1400.0" type="right_before_left" weight_num="4.0" weight_sum="2.1079913607" x="1101.47334483" x_displacement_sum="1.47334482881" y="1407.63753627" y_displacement_sum="7.63753627364" />
    <node avg_slowdown_ratio="0.52609791217" id="node_13x08" junction="True" old_x="1300.0" old_y="800.0" type="right_before_left" weight_num="4.0" weight_sum="2.10439164868" x="1306.94124866" x_displacement_sum="6.94124866097" y="797.255042136" y_displacement_sum="-2.7449578644" />
    <node avg_slowdown_ratio="0.52051835853" id="node_06x08" junction="True" old_x="600.0" old_y="800.0" type="right_before_left" weight_num="4.0" weight_sum="2.08207343412" x="589.547977084" x_displacement_sum="-10.4520229158" y="797.333056711" y_displacement_sum="-2.66694328882" />
    <node avg_slowdown_ratio="0.519438444923" id="node_14x07" junction="True" old_x="1400.0" old_y="700.0" type="right_before_left" weight_num="4.0" weight_sum="2.07775377969" x="1406.31192613" x_displacement_sum="6.31192612519" y="699.078500202" y_displacement_sum="-0.921499797925" />
    <node avg_slowdown_ratio="0.519078473723" id="node_14x08" junction="True" old_x="1400.0" old_y="800.0" type="right_before_left" weight_num="4.0" weight_sum="2.07631389489" x="1407.31500857" x_displacement_sum="7.31500857012" y="802.301394776" y_displacement_sum="2.30139477611" />
    <node avg_slowdown_ratio="0.517818574513" id="node_13x06" junction="True" old_x="1300.0" old_y="600.0" type="right_before_left" weight_num="4.0" weight_sum="2.07127429805" x="1299.79674154" x_displacement_sum="-0.203258464097" y="594.526432212" y_displacement_sum="-5.47356778776" />
    <node avg_slowdown_ratio="0.51745860331" id="node_05x11" junction="True" old_x="500.0" old_y="1100.0" type="right_before_left" weight_num="4.0" weight_sum="2.06983441324" x="492.448897692" x_displacement_sum="-7.55110230789" y="1098.01466055" y_displacement_sum="-1.98533944608" />
    <node avg_slowdown_ratio="0.516918646507" id="node_14x11" junction="True" old_x="1400.0" old_y="1100.0" type="right_before_left" weight_num="4.0" weight_sum="2.06767458603" x="1407.10629573" x_displacement_sum="7.10629573209" y="1104.06879628" y_displacement_sum="4.06879627945" />
    <node avg_slowdown_ratio="0.514938804897" id="node_14x12" junction="True" old_x="1400.0" old_y="1200.0" type="right_before_left" weight_num="4.0" weight_sum="2.05975521959" x="1404.40549364" x_displacement_sum="4.40549364482" y="1204.91877783" y_displacement_sum="4.9187778306" />
    <node avg_slowdown_ratio="0.513138948885" id="node_15x10" junction="True" old_x="1500.0" old_y="1000.0" type="right_before_left" weight_num="4.0" weight_sum="2.05255579554" x="1506.3232603" x_displacement_sum="6.32326029755" y="994.162871028" y_displacement_sum="-5.83712897157" />
    <node avg_slowdown_ratio="0.508999280057" id="node_12x07" junction="True" old_x="1200.0" old_y="700.0" type="right_before_left" weight_num="4.0" weight_sum="2.03599712023" x="1204.58136658" x_displacement_sum="4.58136658031" y="694.576753124" y_displacement_sum="-5.42324687634" />
    <node avg_slowdown_ratio="0.505579553635" id="node_11x04" junction="True" old_x="1100.0" old_y="400.0" type="right_before_left" weight_num="4.0" weight_sum="2.02231821454" x="1100.50168223" x_displacement_sum="0.50168223011" y="395.12289467" y_displacement_sum="-4.87710532952" />
    <node avg_slowdown_ratio="0.50485961123" id="node_12x06" junction="True" old_x="1200.0" old_y="600.0" type="right_before_left" weight_num="4.0" weight_sum="2.01943844492" x="1202.26259691" x_displacement_sum="2.26259690561" y="593.574079359" y_displacement_sum="-6.42592064136" />
    <node avg_slowdown_ratio="0.504319654428" id="node_11x05" junction="True" old_x="1100.0" old_y="500.0" type="right_before_left" weight_num="4.0" weight_sum="2.01727861771" x="1103.92459314" x_displacement_sum="3.92459313646" y="497.679961532" y_displacement_sum="-2.32003846784" />
    <node avg_slowdown_ratio="0.502699784018" id="node_05x12" junction="True" old_x="500.0" old_y="1200.0" type="right_before_left" weight_num="4.0" weight_sum="2.01079913607" x="490.661327884" x_displacement_sum="-9.33867211577" y="1200.71136759" y_displacement_sum="0.711367585335" />
    <node avg_slowdown_ratio="0.5" id="node_10x15" junction="True" old_x="1000.0" old_y="1500.0" type="right_before_left" weight_num="4.0" weight_sum="2.0" x="998.589873673" x_displacement_sum="-1.41012632745" y="1503.08369442" y_displacement_sum="3.08369442333" />
    <node avg_slowdown_ratio="0.499999999997" id="node_14x06" junction="True" old_x="1400.0" old_y="600.0" type="right_before_left" weight_num="4.0" weight_sum="1.99999999999" x="1405.15589159" x_displacement_sum="5.15589158994" y="595.287277872" y_displacement_sum="-4.71272212805" />
    <node avg_slowdown_ratio="0.499640028798" id="node_06x09" junction="True" old_x="600.0" old_y="900.0" type="right_before_left" weight_num="4.0" weight_sum="1.99856011519" x="586.555549754" x_displacement_sum="-13.444450246" y="900.256268164" y_displacement_sum="0.256268164136" />
    <node avg_slowdown_ratio="0.499640028795" id="node_14x13" junction="True" old_x="1400.0" old_y="1300.0" type="right_before_left" weight_num="4.0" weight_sum="1.99856011518" x="1405.01645169" x_displacement_sum="5.01645169229" y="1306.64285887" y_displacement_sum="6.64285887329" />
    <node avg_slowdown_ratio="0.498740100792" id="node_08x06" junction="True" old_x="800.0" old_y="600.0" type="right_before_left" weight_num="4.0" weight_sum="1.99496040317" x="794.451251216" x_displacement_sum="-5.548748784" y="589.055494723" y_displacement_sum="-10.9445052771" />
    <node avg_slowdown_ratio="0.497480201583" id="node_07x14" junction="True" old_x="700.0" old_y="1400.0" type="right_before_left" weight_num="4.0" weight_sum="1.98992080633" x="697.968821292" x_displacement_sum="-2.03117870785" y="1408.64453959" y_displacement_sum="8.64453958652" />
    <node avg_slowdown_ratio="0.497300215983" id="node_06x07" junction="True" old_x="600.0" old_y="700.0" type="right_before_left" weight_num="4.0" weight_sum="1.98920086393" x="595.584630629" x_displacement_sum="-4.41536937137" y="693.551035677" y_displacement_sum="-6.44896432343" />
    <node avg_slowdown_ratio="0.497120230382" id="node_08x15" junction="True" old_x="800.0" old_y="1500.0" type="right_before_left" weight_num="4.0" weight_sum="1.98848092153" x="800.71175753" x_displacement_sum="0.711757529826" y="1504.28925917" y_displacement_sum="4.28925917134" />
    <node avg_slowdown_ratio="0.49496040317" id="node_16x11" junction="True" old_x="1600.0" old_y="1100.0" type="right_before_left" weight_num="4.0" weight_sum="1.97984161268" x="1608.51558564" x_displacement_sum="8.5155856368" y="1098.22213776" y_displacement_sum="-1.77786224001" />
    <node avg_slowdown_ratio="0.493160547158" id="node_10x04" junction="True" old_x="1000.0" old_y="400.0" type="right_before_left" weight_num="4.0" weight_sum="1.97264218863" x="997.452463396" x_displacement_sum="-2.54753660369" y="394.294720429" y_displacement_sum="-5.70527957092" />
    <node avg_slowdown_ratio="0.49226061915" id="node_05x13" junction="True" old_x="500.0" old_y="1300.0" type="right_before_left" weight_num="4.0" weight_sum="1.9690424766" x="492.870774324" x_displacement_sum="-7.12922567561" y="1303.48291188" y_displacement_sum="3.48291187792" />
    <node avg_slowdown_ratio="0.487580993523" id="node_13x15" junction="True" old_x="1300.0" old_y="1500.0" type="right_before_left" weight_num="4.0" weight_sum="1.95032397409" x="1302.03257548" x_displacement_sum="2.03257547837" y="1503.54767613" y_displacement_sum="3.54767613229" />
    <node avg_slowdown_ratio="0.486501079915" id="node_07x15" junction="True" old_x="700.0" old_y="1500.0" type="right_before_left" weight_num="4.0" weight_sum="1.94600431966" x="698.553051365" x_displacement_sum="-1.44694863464" y="1502.99625243" y_displacement_sum="2.99625242779" />
    <node avg_slowdown_ratio="0.486141108712" id="node_09x06" junction="True" old_x="900.0" old_y="600.0" type="right_before_left" weight_num="4.0" weight_sum="1.94456443485" x="896.081265042" x_displacement_sum="-3.91873495769" y="586.783278346" y_displacement_sum="-13.216721654" />
    <node avg_slowdown_ratio="0.486141108712" id="node_11x15" junction="True" old_x="1100.0" old_y="1500.0" type="right_before_left" weight_num="4.0" weight_sum="1.94456443485" x="1101.17521389" x_displacement_sum="1.17521388897" y="1504.35055075" y_displacement_sum="4.35055074579" />
    <node avg_slowdown_ratio="0.48614110871" id="node_07x07" junction="True" old_x="700.0" old_y="700.0" type="right_before_left" weight_num="4.0" weight_sum="1.94456443484" x="691.604617962" x_displacement_sum="-8.39538203846" y="689.484030552" y_displacement_sum="-10.5159694484" />
    <node avg_slowdown_ratio="0.4843412527" id="node_09x15" junction="True" old_x="900.0" old_y="1500.0" type="right_before_left" weight_num="4.0" weight_sum="1.9373650108" x="899.621374798" x_displacement_sum="-0.37862520169" y="1503.50388023" y_displacement_sum="3.50388022574" />
    <node avg_slowdown_ratio="0.48164146868" id="node_13x05" junction="True" old_x="1300.0" old_y="500.0" type="right_before_left" weight_num="4.0" weight_sum="1.92656587472" x="1301.14357975" x_displacement_sum="1.1435797453" y="497.749873066" y_displacement_sum="-2.25012693401" />
    <node avg_slowdown_ratio="0.480381569475" id="node_10x14" junction="True" old_x="1000.0" old_y="1400.0" type="right_before_left" weight_num="4.0" weight_sum="1.9215262779" x="996.523443497" x_displacement_sum="-3.47655650265" y="1406.73905178" y_displacement_sum="6.73905178056" />
    <node avg_slowdown_ratio="0.480201583873" id="node_04x07" junction="True" old_x="400.0" old_y="700.0" type="right_before_left" weight_num="4.0" weight_sum="1.92080633549" x="396.323862961" x_displacement_sum="-3.67613703887" y="697.971112916" y_displacement_sum="-2.02888708379" />
    <node avg_slowdown_ratio="0.479301655868" id="node_09x05" junction="True" old_x="900.0" old_y="500.0" type="right_before_left" weight_num="4.0" weight_sum="1.91720662347" x="895.043043647" x_displacement_sum="-4.95695635335" y="496.713735326" y_displacement_sum="-3.28626467396" />
    <node avg_slowdown_ratio="0.47822174226" id="node_12x15" junction="True" old_x="1200.0" old_y="1500.0" type="right_before_left" weight_num="4.0" weight_sum="1.91288696904" x="1201.16838185" x_displacement_sum="1.16838184961" y="1504.49495882" y_displacement_sum="4.49495882166" />
    <node avg_slowdown_ratio="0.47660187185" id="node_05x07" junction="True" old_x="500.0" old_y="700.0" type="right_before_left" weight_num="4.0" weight_sum="1.9064074874" x="497.891542509" x_displacement_sum="-2.1084574914" y="696.124875744" y_displacement_sum="-3.87512425583" />
    <node avg_slowdown_ratio="0.475881929445" id="node_08x14" junction="True" old_x="800.0" old_y="1400.0" type="right_before_left" weight_num="4.0" weight_sum="1.90352771778" x="802.435389687" x_displacement_sum="2.43538968728" y="1407.29505828" y_displacement_sum="7.29505827989" />
    <node avg_slowdown_ratio="0.47516198704" id="node_16x12" junction="True" old_x="1600.0" old_y="1200.0" type="right_before_left" weight_num="4.0" weight_sum="1.90064794816" x="1606.98000712" x_displacement_sum="6.98000711661" y="1205.69220913" y_displacement_sum="5.69220913291" />
    <node avg_slowdown_ratio="0.473902087835" id="node_12x14" junction="True" old_x="1200.0" old_y="1400.0" type="right_before_left" weight_num="4.0" weight_sum="1.89560835134" x="1203.15669602" x_displacement_sum="3.15669602346" y="1406.7985986" y_displacement_sum="6.79859859594" />
    <node avg_slowdown_ratio="0.473902087832" id="node_13x14" junction="True" old_x="1300.0" old_y="1400.0" type="right_before_left" weight_num="4.0" weight_sum="1.89560835133" x="1303.10845312" x_displacement_sum="3.10845312328" y="1404.72337192" y_displacement_sum="4.72337191651" />
    <node avg_slowdown_ratio="0.472642188628" id="node_13x04" junction="True" old_x="1300.0" old_y="400.0" type="right_before_left" weight_num="4.0" weight_sum="1.89056875451" x="1305.95474897" x_displacement_sum="5.95474896969" y="396.252708376" y_displacement_sum="-3.74729162442" />
    <node avg_slowdown_ratio="0.47210223182" id="node_05x14" junction="True" old_x="500.0" old_y="1400.0" type="right_before_left" weight_num="4.0" weight_sum="1.88840892728" x="496.020634852" x_displacement_sum="-3.97936514848" y="1404.86167015" y_displacement_sum="4.86167014668" />
    <node avg_slowdown_ratio="0.47210223182" id="node_06x15" junction="True" old_x="600.0" old_y="1500.0" type="right_before_left" weight_num="4.0" weight_sum="1.88840892728" x="597.552321997" x_displacement_sum="-2.44767800291" y="1502.94550338" y_displacement_sum="2.94550338042" />
    <node avg_slowdown_ratio="0.468142548597" id="node_04x11" junction="True" old_x="400.0" old_y="1100.0" type="right_before_left" weight_num="4.0" weight_sum="1.87257019439" x="394.608383171" x_displacement_sum="-5.39161682884" y="1099.28471556" y_displacement_sum="-0.715284439724" />
    <node avg_slowdown_ratio="0.467602591793" id="node_15x07" junction="True" old_x="1500.0" old_y="700.0" type="right_before_left" weight_num="4.0" weight_sum="1.87041036717" x="1505.18030673" x_displacement_sum="5.18030673161" y="699.532562755" y_displacement_sum="-0.467437244527" />