<?xml version="1.0"?>
<!-- generated on 2016-12-01 14:50:38.715000 by $Id: route2trips.py 20433 2016-04-13 08:00:14Z behrisch $ -->
<trips>
    <vType id="passenger" vClass="passenger"/>
    <trip id="0" depart="0.00" from="xedge_02x06" to="xedge_08x23" type="passenger"/>
    <trip id="1" depart="0.12" from="yedge_06x19" to="xedge_04x34" type="passenger"/>
    <trip id="2" depart="0.24" from="yedge_18x03" to="yedge_20x34" type="passenger"/>
    <trip id="3" depart="0.36" from="xedge_16x12" to="yedge_12x38" type="passenger"/>
    <trip id="4" depart="0.48" from="yedge_15x08" to="yedge_06x22" type="passenger"/>
    <trip id="5" depart="0.60" from="xedge_18x31" to="yedge_12x28" type="passenger"/>
    <trip id="6" depart="0.72" from="xedge_00x35" to="yedge_19x29" type="passenger"/>
    <trip id="7" depart="0.84" from="xedge_00x22" to="xedge_08x38" type="passenger"/>
    <trip id="8" depart="0.96" from="yedge_18x30" to="xedge_07x08" type="passenger"/>
    <trip id="9" depart="1.08" from="yedge_13x05" to="xedge_13x02" type="passenger"/>
    <trip id="10" depart="1.20" from="yedge_03x26" to="yedge_00x06" type="passenger"/>
    <trip id="11" depart="1.32" from="yedge_01x08" to="xedge_11x11" type="passenger"/>
    <trip id="12" depart="1.44" from="xedge_17x24" to="yedge_07x24" type="passenger"/>
    <trip id="13" depart="1.56" from="xedge_06x27" to="xedge_20x20" type="passenger"/>
    <trip id="14" depart="1.68" from="xedge_05x11" to="xedge_18x09" type="passenger"/>
    <trip id="15" depart="1.80" from="yedge_09x07" to="yedge_18x21" type="passenger"/>
    <trip id="16" depart="1.92" from="yedge_02x15" to="yedge_15x37" type="passenger"/>
    <trip id="17" depart="2.04" from="xedge_19x31" to="yedge_07x00" type="passenger"/>
    <trip id="18" depart="2.16" from="xedge_16x06" to="xedge_04x28" type="passenger"/>
    <trip id="19" depart="2.28" from="yedge_06x32" to="xedge_11x22" type="passenger"/>
    <trip id="20" depart="2.40" from="yedge_07x27" to="xedge_07x04" type="passenger"/>
    <trip id="21" depart="2.52" from="yedge_17x15" to="yedge_05x28" type="passenger"/>
    <trip id="22" depart="2.64" from="xedge_00x18" to="yedge_01x21" type="passenger"/>
    <trip id="23" depart="2.76" from="xedge_00x26" to="yedge_05x12" type="passenger"/>
    <trip id="24" depart="2.88" from="yedge_10x19" to="yedge_10x06" type="passenger"/>
    <trip id="25" depart="3.00" from="yedge_00x04" to="xedge_14x11" type="passenger"/>
    <trip id="26" depart="3.12" from="xedge_19x06" to="xedge_12x23" type="passenger"/>
    <trip id="27" depart="3.24" from="xedge_07x39" to="xedge_07x19" type="passenger"/>
    <trip id="28" depart="3.36" from="yedge_07x39" to="xedge_19x34" type="passenger"/>
    <trip id="29" depart="3.48" from="xedge_08x06" to="xedge_02x13" type="passenger"/>
    <trip id="30" depart="3.60" from="yedge_05x00" to="yedge_08x04" type="passenger"/>
    <trip id="31" depart="3.72" from="xedge_19x12" to="xedge_09x05" type="passenger"/>
    <trip id="32" depart="3.84" from="yedge_18x11" to="yedge_14x15" type="passenger"/>
    <trip id="33" depart="3.96" from="xedge_18x20" to="yedge_16x04" type="passenger"/>
    <trip id="34" depart="4.08" from="yedge_10x07" to="yedge_15x12" type="passenger"/>
    <trip id="35" depart="4.20" from="xedge_05x13" to="xedge_15x39" type="passenger"/>
    <trip id="36" depart="4.32" from="yedge_01x30" to="yedge_19x03" type="passenger"/>
    <trip id="37" depart="4.44" from="xedge_19x21" to="xedge_16x35" type="passenger"/>
    <trip id="38" depart="4.56" from="yedge_15x20" to="yedge_06x33" type="passenger"/>
    <trip id="39" depart="4.68" from="xedge_15x24" to="yedge_20x31" type="passenger"/>
    <trip id="40" depart="4.80" from="xedge_01x12" to="yedge_07x25" type="passenger"/>
    <trip id="41" depart="4.92" from="xedge_17x25" to="xedge_16x04" type="passenger"/>
    <trip id="42" depart="5.04" from="yedge_04x14" to="yedge_08x16" type="passenger"/>
    <trip id="43" depart="5.16" from="xedge_08x33" to="xedge_02x33" type="passenger"/>
    <trip id="44" depart="5.28" from="yedge_03x09" to="xedge_16x36" type="passenger"/>
    <trip id="45" depart="5.40" from="yedge_01x35" to="xedge_05x27" type="passenger"/>
    <trip id="46" depart="5.52" from="yedge_17x29" to="yedge_17x04" type="passenger"/>
    <trip id="47" depart="5.64" from="yedge_00x19" to="xedge_02x12" type="passenger"/>
    <trip id="48" depart="5.76" from="yedge_17x38" to="yedge_07x39" type="passenger"/>
    <trip id="49" depart="5.88" from="xedge_12x10" to="xedge_17x15" type="passenger"/>
    <trip id="50" depart="6.00" from="xedge_01x02" to="xedge_06x26" type="passenger"/>
    <trip id="51" depart="6.12" from="yedge_04x22" to="yedge_05x02" type="passenger"/>
    <trip id="52" depart="6.24" from="xedge_05x03" to="xedge_09x00" type="passenger"/>
    <trip id="53" depart="6.36" from="xedge_13x30" to="xedge_16x00" type="passenger"/>
    <trip id="54" depart="6.48" from="xedge_07x03" to="yedge_04x07" type="passenger"/>
    <trip id="55" depart="6.60" from="yedge_00x28" to="yedge_10x38" type="passenger"/>
    <trip id="56" depart="6.72" from="xedge_14x26" to="yedge_09x18" type="passenger"/>
    <trip id="57" depart="6.84" from="yedge_01x11" to="yedge_02x13" type="passenger"/>
    <trip id="58" depart="6.96" from="xedge_18x12" to="xedge_08x33" type="passenger"/>
    <trip id="59" depart="7.08" from="xedge_17x19" to="yedge_08x10" type="passenger"/>
    <trip id="60" depart="7.20" from="yedge_12x08" to="xedge_10x06" type="passenger"/>
    <trip id="61" depart="7.32" from="xedge_16x00" to="xedge_03x18" type="passenger"/>
    <trip id="62" depart="7.44" from="yedge_08x29" to="xedge_01x29" type="passenger"/>
    <trip id="63" depart="7.56" from="xedge_14x35" to="yedge_03x12" type="passenger"/>
    <trip id="64" depart="7.68" from="yedge_01x10" to="yedge_16x25" type="passenger"/>
    <trip id="65" depart="7.80" from="yedge_06x09" to="xedge_13x29" type="passenger"/>
    <trip id="66" depart="7.92" from="yedge_13x01" to="yedge_20x37" type="passenger"/>
    <trip id="67" depart="8.04" from="yedge_15x13" to="yedge_19x10" type="passenger"/>
    <trip id="68" depart="8.16" from="xedge_05x05" to="xedge_06x33" type="passenger"/>
    <trip id="69" depart="8.28" from="xedge_20x00" to="xedge_13x09" type="passenger"/>
    <trip id="70" depart="8.40" from="yedge_16x20" to="yedge_07x02" type="passenger"/>
    <trip id="71" depart="8.52" from="yedge_05x09" to="yedge_07x00" type="passenger"/>
    <trip id="72" depart="8.64" from="xedge_16x26" to="xedge_17x06" type="passenger"/>
    <trip id="73" depart="8.76" from="xedge_08x38" to="yedge_19x03" type="passenger"/>
    <trip id="74" depart="8.88" from="yedge_08x10" to="xedge_08x09" type="passenger"/>
    <trip id="75" depart="9.00" from="xedge_15x05" to="xedge_20x09" type="passenger"/>
    <trip id="76" depart="9.12" from="yedge_17x17" to="xedge_04x14" type="passenger"/>
    <trip id="77" depart="9.24" from="yedge_09x35" to="xedge_05x19" type="passenger"/>
    <trip id="78" depart="9.36" from="yedge_07x22" to="yedge_05x20" type="passenger"/>
    <trip id="79" depart="9.48" from="xedge_07x35" to="yedge_16x02" type="passenger"/>
    <trip id="80" depart="9.60" from="yedge_04x27" to="xedge_04x36" type="passenger"/>
    <trip id="81" depart="9.72" from="yedge_12x25" to="yedge_03x04" type="passenger"/>
    <trip id="82" depart="9.84" from="yedge_09x13" to="yedge_00x20" type="passenger"/>
    <trip id="83" depart="9.96" from="xedge_02x22" to="yedge_10x25" type="passenger"/>
    <trip id="84" depart="10.08" from="yedge_01x09" to="xedge_00x16" type="passenger"/>
    <trip id="85" depart="10.20" from="xedge_03x39" to="xedge_09x17" type="passenger"/>
    <trip id="86" depart="10.32" from="xedge_17x03" to="yedge_02x18" type="passenger"/>
    <trip id="87" depart="10.44" from="xedge_20x08" to="yedge_16x22" type="passenger"/>
    <trip id="88" depart="10.56" from="yedge_19x21" to="yedge_19x04" type="passenger"/>
    <trip id="89" depart="10.68" from="yedge_02x05" to="xedge_14x29" type="passenger"/>
    <trip id="90" depart="10.80" from="yedge_18x13" to="yedge_10x18" type="passenger"/>
    <trip id="91" depart="10.92" from="xedge_13x38" to="yedge_13x20" type="passenger"/>
    <trip id="92" depart="11.04" from="xedge_20x37" to="yedge_09x37" type="passenger"/>
    <trip id="93" depart="11.16" from="xedge_07x04" to="xedge_09x24" type="passenger"/>
    <trip id="94" depart="11.28" from="xedge_02x07" to="yedge_11x12" type="passenger"/>
    <trip id="95" depart="11.40" from="yedge_12x32" to="yedge_01x00" type="passenger"/>
    <trip id="96" depart="11.52" from="xedge_02x00" to="xedge_11x10" type="passenger"/>
    <trip id="97" depart="11.64" from="yedge_05x31" to="xedge_02x21" type="passenger"/>
    <trip id="98" depart="11.76" from="xedge_04x32" to="xedge_02x04" type="passenger"/>
    <trip id="99" depart="11.88" from="xedge_03x20" to="yedge_13x14" type="passenger"/>
    <trip id="100" depart="12.00" from="yedge_01x34" to="xedge_14x12" type="passenger"/>
    <trip id="101" depart="12.12" from="xedge_09x14" to="yedge_12x04" type="passenger"/>
    <trip id="102" depart="12.24" from="yedge_18x12" to="yedge_15x31" type="passenger"/>
    <trip id="103" depart="12.36" from="yedge_01x06" to="yedge_05x21" type="passenger"/>
    <trip id="104" depart="12.48" from="yedge_15x23" to="xedge_11x01" type="passenger"/>
    <trip id="105" depart="12.60" from="xedge_01x17" to="yedge_06x04" type="passenger"/>
    <trip id="106" depart="12.72" from="xedge_01x25" to="yedge_05x25" type="passenger"/>
    <trip id="107" depart="12.84" from="yedge_19x09" to="xedge_11x30" type="passenger"/>
    <trip id="108" depart="12.96" from="xedge_12x06" to="yedge_14x34" type="passenger"/>
    <trip id="109" depart="13.08" from="xedge_15x03" to="yedge_12x13" type="passenger"/>
    <trip id="110" depart="13.20" from="yedge_11x16" to="yedge_00x18" type="passenger"/>
    <trip id="111" depart="13.32" from="xedge_15x18" to="yedge_00x37" type="passenger"/>
    <trip id="112" depart="13.44" from="yedge_00x26" to="xedge_16x22" type="passenger"/>
    <trip id="113" depart="13.56" from="xedge_06x27" to="yedge_20x19" type="passenger"/>
    <trip id="114" depart="13.68" from="xedge_17x08" to="xedge_19x35" type="passenger"/>
    <trip id="115" depart="13.80" from="yedge_07x03" to="xedge_14x04" type="passenger"/>
    <trip id="116" depart="13.92" from="yedge_03x04" to="xedge_15x18" type="passenger"/>
    <trip id="117" depart="14.04" from="xedge_17x07" to="xedge_03x34" type="passenger"/>
    <trip id="118" depart="14.16" from="yedge_15x03" to="xedge_17x00" type="passenger"/>
    <trip id="119" depart="14.28" from="xedge_01x02" to="yedge_07x33" type="passenger"/>
    <trip id="120" depart="14.40" from="xedge_05x17" to="yedge_09x20" type="passenger"/>
    <trip id="121" depart="14.52" from="yedge_20x15" to="xedge_03x24" type="passenger"/>
    <trip id="122" depart="14.64" from="yedge_14x12" to="yedge_10x19" type="passenger"/>
    <trip id="123" depart="14.76" from="xedge_07x05" to="xedge_07x31" type="passenger"/>
    <trip id="124" depart="14.88" from="yedge_01x34" to="yedge_10x36" type="passenger"/>
    <trip id="125" depart="15.00" from="xedge_07x09" to="xedge_04x19" type="passenger"/>
    <trip id="126" depart="15.12" from="xedge_08x05" to="yedge_14x28" type="passenger"/>
    <trip id="127" depart="15.24" from="xedge_06x07" to="xedge_01x01" type="passenger"/>
    <trip id="128" depart="15.36" from="yedge_00x20" to="yedge_00x20" type="passenger"/>
    <trip id="129" depart="15.48" from="yedge_01x33" to="xedge_00x10" type="passenger"/>
    <trip id="130" depart="15.60" from="yedge_06x31" to="yedge_11x28" type="passenger"/>
    <trip id="131" depart="15.72" from="xedge_04x25" to="xedge_01x11" type="passenger"/>
    <trip id="132" depart="15.84" from="yedge_14x15" to="yedge_11x09" type="passenger"/>
    <trip id="133" depart="15.96" from="yedge_00x12" to="xedge_11x11" type="passenger"/>
    <trip id="134" depart="16.08" from="yedge_04x29" to="xedge_05x28" type="passenger"/>
    <trip id="135" depart="16.20" from="yedge_07x02" to="xedge_09x20" type="passenger"/>
    <trip id="136" depart="16.32" from="xedge_01x27" to="yedge_03x20" type="passenger"/>
    <trip id="137" depart="16.44" from="yedge_18x00" to="xedge_03x32" type="passenger"/>
    <trip id="138" depart="16.56" from="xedge_19x06" to="yedge_14x14" type="passenger"/>
    <trip id="139" depart="16.68" from="yedge_18x31" to="xedge_05x35" type="passenger"/>
    <trip id="140" depart="16.80" from="xedge_11x30" to="yedge_14x10" type="passenger"/>
    <trip id="141" depart="16.92" from="xedge_11x31" to="xedge_01x10" type="passenger"/>
    <trip id="142" depart="17.04" from="yedge_19x18" to="xedge_03x34" type="passenger"/>
    <trip id="143" depart="17.16" from="yedge_07x29" to="xedge_12x32" type="passenger"/>
    <trip id="144" depart="17.28" from="xedge_18x17" to="yedge_06x04" type="passenger"/>
    <trip id="145" depart="17.40" from="xedge_03x03" to="yedge_13x15" type="passenger"/>
    <trip id="146" depart="17.52" from="xedge_10x31" to="yedge_08x39" type="passenger"/>
    <trip id="147" depart="17.64" from="xedge_16x28" to="xedge_01x17" type="passenger"/>
    <trip id="148" depart="17.76" from="xedge_01x12" to="xedge_09x30" type="passenger"/>
    <trip id="149" depart="17.88" from="xedge_16x34" to="yedge_09x05" type="passenger"/>
    <trip id="150" depart="18.00" from="yedge_19x16" to="xedge_15x20" type="passenger"/>
    <trip id="151" depart="18.12" from="yedge_07x39" to="yedge_18x13" type="passenger"/>
    <trip id="152" depart="18.24" from="xedge_10x12" to="xedge_13x22" type="passenger"/>
    <trip id="153" depart="18.36" from="yedge_05x31" to="yedge_01x30" type="passenger"/>
    <trip id="154" depart="18.48" from="yedge_15x16" to="xedge_09x03" type="passenger"/>
    <trip id="155" depart="18.60" from="xedge_03x15" to="yedge_16x30" type="passenger"/>
    <trip id="156" depart="18.72" from="yedge_03x31" to="yedge_19x39" type="passenger"/>
    <trip id="157" depart="18.84" from="xedge_19x32" to="yedge_03x36" type="passenger"/>
    <trip id="158" depart="18.96" from="xedge_12x34" to="yedge_01x17" type="passenger"/>
    <trip id="159" depart="19.08" from="yedge_02x30" to="xedge_19x33" type="passenger"/>
    <trip id="160" depart="19.20" from="yedge_15x08" to="yedge_02x16" type="passenger"/>
    <trip id="161" depart="19.32" from="yedge_16x24" to="yedge_20x24" type="passenger"/>
    <trip id="162" depart="19.44" from="yedge_15x36" to="yedge_08x10" type="passenger"/>
    <trip id="163" depart="19.56" from="xedge_18x14" to="yedge_13x37" type="passenger"/>
    <trip id="164" depart="19.68" from="xedge_09x35" to="yedge_06x38" type="passenger"/>
    <trip id="165" depart="19.80" from="yedge_03x26" to="xedge_05x30" type="passenger"/>
    <trip id="166" depart="19.92" from="yedge_06x24" to="xedge_00x21" type="passenger"/>
    <trip id="167" depart="20.04" from="xedge_01x34" to="yedge_13x13" type="passenger"/>
    <trip id="168" depart="20.16" from="xedge_02x00" to="yedge_08x31" type="passenger"/>
    <trip id="169" depart="20.28" from="yedge_18x10" to="xedge_01x26" type="passenger"/>
    <trip id="170" depart="20.40" from="xedge_20x35" to="yedge_01x03" type="passenger"/>
    <trip id="171" depart="20.52" from="yedge_01x12" to="yedge_08x31" type="passenger"/>
    <trip id="172" depart="20.64" from="yedge_12x18" to="xedge_08x04" type="passenger"/>
    <trip id="173" depart="20.76" from="xedge_16x18" to="xedge_00x21" type="passenger"/>
    <trip id="174" depart="20.88" from="xedge_01x35" to="xedge_11x00" type="passenger"/>
    <trip id="175" depart="21.00" from="xedge_18x08" to="yedge_01x13" type="passenger"/>
    <trip id="176" depart="21.12" from="yedge_11x31" to="yedge_15x14" type="passenger"/>
    <trip id="177" depart="21.24" from="xedge_04x21" to="yedge_15x05" type="passenger"/>
    <trip id="178" depart="21.36" from="yedge_04x22" to="yedge_11x10" type="passenger"/>
    <trip id="179" depart="21.48" from="yedge_19x33" to="yedge_18x05" type="passenger"/>
    <trip id="180" depart="21.60" from="xedge_17x31" to="xedge_03x24" type="passenger"/>
    <trip id="181" depart="21.72" from="xedge_15x00" to="xedge_01x20" type="passenger"/>
    <trip id="182" depart="21.84" from="yedge_20x00" to="xedge_00x33" type="passenger"/>
    <trip id="183" depart="21.96" from="xedge_09x09" to="xedge_05x16" type="passenger"/>
    <trip id="184" depart="22.08" from="yedge_15x13" to="xedge_11x08" type="passenger"/>
    <trip id="185" depart="22.20" from="yedge_08x21" to="xedge_17x21" type="passenger"/>
    <trip id="186" depart="22.32" from="yedge_13x32" to="xedge_00x23" type="passenger"/>
    <trip id="187" depart="22.44" from="xedge_05x34" to="xedge_05x16" type="passenger"/>
    <trip id="188" depart="22.56" from="xedge_12x38" to="xedge_15x35" type="passenger"/>
    <trip id="189" depart="22.68" from="xedge_03x27" to="yedge_13x11" type="passenger"/>
    <trip id="190" depart="22.80" from="xedge_13x08" to="xedge_15x02" type="passenger"/>
    <trip id="191" depart="22.92" from="yedge_10x11" to="xedge_18x21" type="passenger"/>
    <trip id="192" depart="23.04" from="yedge_15x27" to="yedge_15x10" type="passenger"/>
    <trip id="193" depart="23.16" from="xedge_09x04" to="yedge_11x37" type="passenger"/>
    <trip id="194" depart="23.28" from="xedge_19x23" to="xedge_16x21" type="passenger"/>
    <trip id="195" depart="23.40" from="yedge_07x04" to="xedge_06x10" type="passenger"/>
    <trip id="196" depart="23.52" from="xedge_07x25" to="yedge_05x07" type="passenger"/>
    <trip id="197" depart="23.64" from="yedge_20x21" to="yedge_19x18" type="passenger"/>
    <trip id="198" depart="23.76" from="xedge_08x02" to="xedge_20x06" type="passenger"/>
    <trip id="199" depart="23.88" from="xedge_13x06" to="yedge_19x02" type="passenger"/>
    <trip id="200" depart="24.00" from="xedge_00x12" to="xedge_14x34" type="passenger"/>
    <trip id="201" depart="24.12" from="yedge_19x24" to="xedge_03x09" type="passenger"/>
    <trip id="202" depart="24.24" from="yedge_13x16" to="yedge_10x01" type="passenger"/>
    <trip id="203" depart="24.36" from="yedge_05x10" to="xedge_16x22" type="passenger"/>
    <trip id="204" depart="24.48" from="yedge_12x05" to="xedge_13x12" type="passenger"/>
    <trip id="205" depart="24.60" from="yedge_09x16" to="xedge_02x20" type="passenger"/>
    <trip id="206" depart="24.72" from="yedge_02x04" to="xedge_06x36" type="passenger"/>
    <trip id="207" depart="24.84" from="xedge_07x21" to="xedge_20x03" type="passenger"/>
    <trip id="208" depart="24.96" from="yedge_18x13" to="xedge_16x39" type="passenger"/>
    <trip id="209" depart="25.08" from="xedge_17x11" to="yedge_06x07" type="passenger"/>
    <trip id="210" depart="25.20" from="yedge_01x00" to="xedge_09x31" type="passenger"/>
    <trip id="211" depart="25.32" from="yedge_04x15" to="yedge_06x24" type="passenger"/>
    <trip id="212" depart="25.44" from="yedge_01x35" to="xedge_10x17" type="passenger"/>
    <trip id="213" depart="25.56" from="xedge_17x05" to="yedge_06x00" type="passenger"/>
    <trip id="214" depart="25.68" from="xedge_20x19" to="yedge_18x13" type="passenger"/>
    <trip id="215" depart="25.80" from="xedge_19x09" to="yedge_03x18" type="passenger"/>
    <trip id="216" depart="25.92" from="xedge_08x39" to="yedge_05x10" type="passenger"/>
    <trip id="217" depart="26.04" from="yedge_18x20" to="xedge_15x18" type="passenger"/>
    <trip id="218" depart="26.16" from="xedge_16x02" to="xedge_12x21" type="passenger"/>
    <trip id="219" depart="26.28" from="xedge_15x06" to="yedge_17x32" type="passenger"/>
    <trip id="220" depart="26.40" from="yedge_20x13" to="xedge_14x19" type="passenger"/>
    <trip id="221" depart="26.52" from="xedge_04x29" to="yedge_14x07" type="passenger"/>
    <trip id="222" depart="26.64" from="xedge_14x34" to="xedge_01x31" type="passenger"/>
    <trip id="223" depart="26.76" from="yedge_05x12" to="xedge_00x26" type="passenger"/>
    <trip id="224" depart="26.88" from="yedge_06x19" to="yedge_15x39" type="passenger"/>
    <trip id="225" depart="27.00" from="xedge_08x37" to="yedge_06x20" type="passenger"/>
    <trip id="226" depart="27.12" from="xedge_10x31" to="yedge_12x24" type="passenger"/>
    <trip id="227" depart="27.24" from="xedge_02x04" to="xedge_08x39" type="passenger"/>
    <trip id="228" depart="27.36" from="xedge_16x06" to="xedge_13x17" type="passenger"/>
    <trip id="229" depart="27.48" from="yedge_05x06" to="yedge_17x03" type="passenger"/>
    <trip id="230" depart="27.60" from="yedge_02x17" to="xedge_05x28" type="passenger"/>
    <trip id="231" depart="27.72" from="yedge_20x24" to="yedge_01x21" type="passenger"/>
    <trip id="232" depart="27.84" from="yedge_00x15" to="xedge_11x03" type="passenger"/>
    <trip id="233" depart="27.96" from="xedge_11x22" to="yedge_18x36" type="passenger"/>
    <trip id="234" depart="28.08" from="xedge_07x13" to="xedge_16x18" type="passenger"/>
    <trip id="235" depart="28.20" from="xedge_16x24" to="xedge_19x19" type="passenger"/>
    <trip id="236" depart="28.32" from="yedge_10x24" to="xedge_19x38" type="passenger"/>
    <trip id="237" depart="28.44" from="xedge_10x28" to="yedge_20x12" type="passenger"/>
    <trip id="238" depart="28.56" from="yedge_00x36" to="xedge_11x18" type="passenger"/>
    <trip id="239" depart="28.68" from="xedge_06x23" to="yedge_03x04" type="passenger"/>
    <trip id="240" depart="28.80" from="yedge_06x12" to="yedge_05x25" type="passenger"/>
    <trip id="241" depart="28.92" from="xedge_17x32" to="xedge_11x26" type="passenger"/>
    <trip id="242" depart="29.04" from="yedge_01x00" to="xedge_07x39" type="passenger"/>
    <trip id="243" depart="29.16" from="xedge_04x27" to="yedge_00x26" type="passenger"/>
    <trip id="244" depart="29.28" from="yedge_11x12" to="xedge_01x18" type="passenger"/>
    <trip id="245" depart="29.40" from="xedge_09x31" to="xedge_13x39" type="passenger"/>
    <trip id="246" depart="29.52" from="xedge_05x38" to="yedge_17x26" type="passenger"/>
    <trip id="247" depart="29.64" from="yedge_07x20" to="yedge_06x30" type="passenger"/>
    <trip id="248" depart="29.76" from="xedge_05x06" to="xedge_14x18" type="passenger"/>
    <trip id="249" depart="29.88" from="yedge_20x21" to="xedge_14x24" type="passenger"/>
    <trip id="250" depart="30.00" from="yedge_19x13" to="yedge_03x36" type="passenger"/>
    <trip id="251" depart="30.12" from="yedge_17x17" to="xedge_11x06" type="passenger"/>
    <trip id="252" depart="30.24" from="yedge_10x30" to="yedge_20x34" type="passenger"/>
    <trip id="253" depart="30.36" from="xedge_04x03" to="yedge_02x02" type="passenger"/>
    <trip id="254" depart="30.48" from="xedge_13x08" to="xedge_16x16" type="passenger"/>
    <trip id="255" depart="30.60" from="yedge_05x36" to="xedge_11x23" type="passenger"/>
    <trip id="256" depart="30.72" from="xedge_16x10" to="yedge_08x02" type="passenger"/>
    <trip id="257" depart="30.84" from="xedge_01x11" to="xedge_02x28" type="passenger"/>
    <trip id="258" depart="30.96" from="yedge_14x07" to="yedge_06x36" type="passenger"/>
    <trip id="259" depart="31.08" from="xedge_11x38" to="yedge_08x01" type="passenger"/>
    <trip id="260" depart="31.20" from="yedge_01x31" to="xedge_12x39" type="passenger"/>
    <trip id="261" depart="31.32" from="xedge_03x15" to="xedge_13x30" type="passenger"/>
    <trip id="262" depart="31.44" from="yedge_04x33" to="yedge_15x07" type="passenger"/>
    <trip id="263" depart="31.56" from="yedge_12x39" to="xedge_17x02" type="passenger"/>
    <trip id="264" depart="31.68" from="yedge_00x24" to="yedge_18x12" type="passenger"/>
    <trip id="265" depart="31.80" from="yedge_19x25" to="xedge_02x39" type="passenger"/>
    <trip id="266" depart="31.92" from="yedge_04x39" to="yedge_00x26" type="passenger"/>
    <trip id="267" depart="32.04" from="xedge_03x15" to="yedge_15x01" type="passenger"/>
    <trip id="268" depart="32.16" from="yedge_14x18" to="xedge_20x36" type="passenger"/>
    <trip id="269" depart="32.28" from="yedge_17x39" to="yedge_11x33" type="passenger"/>
    <trip id="270" depart="32.40" from="yedge_10x15" to="yedge_14x17" type="passenger"/>
    <trip id="271" depart="32.52" from="yedge_16x37" to="yedge_15x08" type="passenger"/>
    <trip id="272" depart="32.64" from="xedge_07x10" to="xedge_02x09" type="passenger"/>
    <trip id="273" depart="32.76" from="yedge_11x28" to="xedge_12x09" type="passenger"/>
    <trip id="274" depart="32.88" from="yedge_04x13" to="yedge_18x01" type="passenger"/>
    <trip id="275" depart="33.00" from="xedge_19x00" to="yedge_12x14" type="passenger"/>
    <trip id="276" depart="33.12" from="yedge_15x12" to="xedge_08x20" type="passenger"/>
    <trip id="277" depart="33.24" from="yedge_15x38" to="yedge_06x03" type="passenger"/>
    <trip id="278" depart="33.36" from="xedge_09x03" to="yedge_19x15" type="passenger"/>
    <trip id="279" depart="33.48" from="xedge_10x30" to="yedge_12x00" type="passenger"/>
    <trip id="280" depart="33.60" from="xedge_10x11" to="xedge_01x10" type="passenger"/>
    <trip id="281" depart="33.72" from="xedge_18x06" to="yedge_19x11" type="passenger"/>
    <trip id="282" depart="33.84" from="yedge_11x00" to="xedge_13x03" type="passenger"/>
    <trip id="283" depart="33.96" from="yedge_02x26" to="yedge_08x09" type="passenger"/>
    <trip id="284" depart="34.08" from="yedge_17x00" to="yedge_02x10" type="passenger"/>
    <trip id="285" depart="34.20" from="yedge_09x30" to="yedge_07x10" type="passenger"/>
    <trip id="286" depart="34.32" from="yedge_08x09" to="xedge_11x38" type="passenger"/>
    <trip id="287" depart="34.44" from="xedge_00x31" to="xedge_13x30" type="passenger"/>
    <trip id="288" depart="34.56" from="xedge_16x31" to="xedge_20x23" type="passenger"/>
    <trip id="289" depart="34.68" from="yedge_20x01" to="yedge_10x26" type="passenger"/>
    <trip id="290" depart="34.80" from="yedge_16x23" to="xedge_01x19" type="passenger"/>
    <trip id="291" depart="34.92" from="xedge_02x29" to="yedge_06x26" type="passenger"/>
    <trip id="292" depart="35.04" from="xedge_20x09" to="yedge_11x36" type="passenger"/>
    <trip id="293" depart="35.16" from="xedge_17x09" to="xedge_06x15" type="passenger"/>
    <trip id="294" depart="35.28" from="xedge_17x26" to="xedge_14x10" type="passenger"/>
    <trip id="295" depart="35.40" from="xedge_07x01" to="xedge_14x21" type="passenger"/>
    <trip id="296" depart="35.52" from="xedge_09x37" to="yedge_06x19" type="passenger"/>
    <trip id="297" depart="35.64" from="yedge_15x16" to="yedge_02x15" type="passenger"/>
    <trip id="298" depart="35.76" from="yedge_15x23" to="yedge_20x24" type="passenger"/>
    <trip id="299" depart="35.88" from="yedge_01x05" to="yedge_18x21" type="passenger"/>
    <trip id="300" depart="36.00" from="yedge_08x32" to="xedge_19x14" type="passenger"/>
    <trip id="301" depart="36.12" from="yedge_08x14" to="yedge_09x12" type="passenger"/>
    <trip id="302" depart="36.24" from="xedge_05x32" to="yedge_02x13" type="passenger"/>
    <trip id="303" depart="36.36" from="yedge_02x04" to="yedge_10x28" type="passenger"/>
    <trip id="304" depart="36.48" from="yedge_19x10" to="yedge_09x35" type="passenger"/>
    <trip id="305" depart="36.60" from="yedge_19x12" to="xedge_17x00" type="passenger"/>
    <trip id="306" depart="36.72" from="xedge_00x39" to="yedge_19x15" type="passenger"/>
    <trip id="307" depart="36.84" from="xedge_00x09" to="xedge_06x02" type="passenger"/>
    <trip id="308" depart="36.96" from="yedge_08x30" to="xedge_09x10" type="passenger"/>
    <trip id="309" depart="37.08" from="xedge_03x06" to="yedge_09x14" type="passenger"/>
    <trip id="310" depart="37.20" from="yedge_14x01" to="yedge_13x28" type="passenger"/>
    <trip id="311" depart="37.32" from="xedge_19x11" to="yedge_13x02" type="passenger"/>
    <trip id="312" depart="37.44" from="xedge_04x00" to="xedge_15x22" type="passenger"/>
    <trip id="313" depart="37.56" from="yedge_03x16" to="yedge_18x03" type="passenger"/>
    <trip id="314" depart="37.68" from="xedge_19x17" to="xedge_17x37" type="passenger"/>
    <trip id="315" depart="37.80" from="xedge_09x07" to="yedge_02x13" type="passenger"/>
    <trip id="316" depart="37.92" from="xedge_03x05" to="xedge_09x35" type="passenger"/>
    <trip id="317" depart="38.04" from="xedge_12x29" to="yedge_10x29" type="passenger"/>
    <trip id="318" depart="38.16" from="yedge_20x36" to="xedge_12x32" type="passenger"/>
    <trip id="319" depart="38.28" from="yedge_04x33" to="xedge_10x12" type="passenger"/>
    <trip id="320" depart="38.40" from="xedge_02x31" to="xedge_03x07" type="passenger"/>
    <trip id="321" depart="38.52" from="yedge_16x17" to="xedge_08x00" type="passenger"/>
    <trip id="322" depart="38.64" from="yedge_17x10" to="yedge_15x36" type="passenger"/>
    <trip id="323" depart="38.76" from="yedge_08x25" to="xedge_14x32" type="passenger"/>
    <trip id="324" depart="38.88" from="yedge_00x26" to="xedge_16x01" type="passenger"/>
    <trip id="325" depart="39.00" from="xedge_01x24" to="yedge_07x27" type="passenger"/>
    <trip id="326" depart="39.12" from="xedge_02x18" to="xedge_10x13" type="passenger"/>
    <trip id="327" depart="39.24" from="xedge_05x19" to="yedge_04x26" type="passenger"/>
    <trip id="328" depart="39.36" from="yedge_11x18" to="xedge_03x06" type="passenger"/>
    <trip id="329" depart="39.48" from="xedge_14x11" to="xedge_14x18" type="passenger"/>
    <trip id="330" depart="39.60" from="yedge_15x17" to="xedge_11x20" type="passenger"/>
    <trip id="331" depart="39.72" from="yedge_17x33" to="yedge_08x19" type="passenger"/>
    <trip id="332" depart="39.84" from="yedge_04x16" to="xedge_20x28" type="passenger"/>