<?xml version='1.0' encoding='UTF-8'?>
<edges xmlns:xsi="http://www.w3.org/2001/XMLSchema-instance" version="0.27" xsi:noNamespaceSchemaLocation="http://sumo.dlr.de/xsd/edges_file.xsd"><edge disallow="tram rail_urban rail rail_electric ship" from="node_00x00" id="xedge_00x00" numLanes="1" priority="5" speed="13.89" to="node_00x01" type="highway.undefined" />
    <edge disallow="tram rail_urban rail rail_electric ship" from="node_00x01" id="xedge_00x01" numLanes="1" priority="5" speed="13.89" to="node_00x00" type="highway.undefined" />
    <edge disallow="tram rail_urban rail rail_electric ship" from="node_00x01" id="xedge_00x02" numLanes="1" priority="5" speed="13.89" to="node_00x02" type="highway.undefined" />
    <edge disallow="tram rail_urban rail rail_electric ship" from="node_00x02" id="xedge_00x03" numLanes="1" priority="5" speed="13.89" to="node_00x01" type="highway.undefined" />
    <edge disallow="tram rail_urban rail rail_electric ship" from="node_00x02" id="xedge_00x04" numLanes="1" priority="5" speed="13.89" to="node_00x03" type="highway.undefined" />
    <edge disallow="tram rail_urban rail rail_electric ship" from="node_00x03" id="xedge_00x05" numLanes="1" priority="5" speed="13.89" to="node_00x02" type="highway.undefined" />
    <edge disallow="tram rail_urban rail rail_electric ship" from="node_00x03" id="xedge_00x06" numLanes="1" priority="5" speed="13.89" to="node_00x04" type="highway.undefined" />
    <edge disallow="tram rail_urban rail rail_electric ship" from="node_00x04" id="xedge_00x07" numLanes="1" priority="5" speed="13.89" to="node_00x03" type="highway.undefined" />
    <edge disallow="tram rail_urban rail rail_electric ship" from="node_00x05" id="xedge_00x10" numLanes="1" priority="5" speed="13.89" to="node_00x06" type="highway.undefined" />
    <edge disallow="tram rail_urban rail rail_electric ship" from="node_00x06" id="xedge_00x11" numLanes="1" priority="5" speed="13.89" to="node_00x05" type="highway.undefined" />
    <edge disallow="tram rail_urban rail rail_electric ship" from="node_00x06" id="xedge_00x12" numLanes="1" priority="5" speed="13.89" to="node_00x07" type="highway.undefined" />
    <edge disallow="tram rail_urban rail rail_electric ship" from="node_00x07" id="xedge_00x13" numLanes="1" priority="5" speed="13.89" to="node_00x06" type="highway.undefined" />
    <edge disallow="tram rail_urban rail rail_electric ship" from="node_00x07" id="xedge_00x14" numLanes="1" priority="5" speed="13.89" to="node_00x08" type="highway.undefined" />
    <edge disallow="tram rail_urban rail rail_electric ship" from="node_00x08" id="xedge_00x15" numLanes="1" priority="5" speed="13.89" to="node_00x07" type="highway.undefined" />
    <edge disallow="tram rail_urban rail rail_electric ship" from="node_00x09" id="xedge_00x18" numLanes="1" priority="5" speed="13.89" to="node_00x10" type="highway.undefined" />
    <edge disallow="tram rail_urban rail rail_electric ship" from="node_00x10" id="xedge_00x19" numLanes="1" priority="5" speed="13.89" to="node_00x09" type="highway.undefined" />
    <edge disallow="tram rail_urban rail rail_electric ship" from="node_00x10" id="xedge_00x20" numLanes="1" priority="5" speed="13.89" to="node_00x11" type="highway.undefined" />
    <edge disallow="tram rail_urban rail rail_electric ship" from="node_00x11" id="xedge_00x21" numLanes="1" priority="5" speed="13.89" to="node_00x10" type="highway.undefined" />
    <edge disallow="tram rail_urban rail rail_electric ship" from="node_00x11" id="xedge_00x22" numLanes="1" priority="5" speed="13.89" to="node_00x12" type="highway.undefined" />
    <edge disallow="tram rail_urban rail rail_electric ship" from="node_00x12" id="xedge_00x23" numLanes="1" priority="5" speed="13.89" to="node_00x11" type="highway.undefined" />
    <edge disallow="tram rail_urban rail rail_electric ship" from="node_00x12" id="xedge_00x24" numLanes="1" priority="5" speed="13.89" to="node_00x13" type="highway.undefined" />
    <edge disallow="tram rail_urban rail rail_electric ship" from="node_00x13" id="xedge_00x25" numLanes="1" priority="5" speed="13.89" to="node_00x12" type="highway.undefined" />
    <edge disallow="tram rail_urban rail rail_electric ship" from="node_00x15" id="xedge_00x30" numLanes="1" priority="5" speed="13.89" to="node_00x16" type="highway.undefined" />
    <edge disallow="tram rail_urban rail rail_electric ship" from="node_00x16" id="xedge_00x31" numLanes="1" priority="5" speed="13.89" to="node_00x15" type="highway.undefined" />
    <edge disallow="tram rail_urban rail rail_electric ship" from="node_00x16" id="xedge_00x32" numLanes="1" priority="5" speed="13.89" to="node_00x17" type="highway.undefined" />
    <edge disallow="tram rail_urban rail rail_electric ship" from="node_00x17" id="xedge_00x33" numLanes="1" priority="5" speed="13.89" to="node_00x16" type="highway.undefined" />
    <edge disallow="tram rail_urban rail rail_electric ship" from="node_00x17" id="xedge_00x34" numLanes="1" priority="5" speed="13.89" to="node_00x18" type="highway.undefined" />
    <edge disallow="tram rail_urban rail rail_electric ship" from="node_00x18" id="xedge_00x35" numLanes="1" priority="5" speed="13.89" to="node_00x17" type="highway.undefined" />
    <edge disallow="tram rail_urban rail rail_electric ship" from="node_00x18" id="xedge_00x36" numLanes="1" priority="5" speed="13.89" to="node_00x19" type="highway.undefined" />
    <edge disallow="tram rail_urban rail rail_electric ship" from="node_00x19" id="xedge_00x37" numLanes="1" priority="5" speed="13.89" to="node_00x18" type="highway.undefined" />
    <edge disallow="tram rail_urban rail rail_electric ship" from="node_01x00" id="xedge_01x00" numLanes="1" priority="5" speed="13.89" to="node_01x01" type="highway.undefined" />
    <edge disallow="tram rail_urban rail rail_electric ship" from="node_01x01" id="xedge_01x01" numLanes="1" priority="5" speed="13.89" to="node_01x00" type="highway.undefined" />
    <edge disallow="tram rail_urban rail rail_electric ship" from="node_01x03" id="xedge_01x06" numLanes="1" priority="5" speed="13.89" to="node_01x04" type="highway.undefined" />
    <edge disallow="tram rail_urban rail rail_electric ship" from="node_01x04" id="xedge_01x07" numLanes="1" priority="5" speed="13.89" to="node_01x03" type="highway.undefined" />
    <edge disallow="tram rail_urban rail rail_electric ship" from="node_01x05" id="xedge_01x10" numLanes="1" priority="5" speed="13.89" to="node_01x06" type="highway.undefined" />
    <edge disallow="tram rail_urban rail rail_electric ship" from="node_01x06" id="xedge_01x11" numLanes="1" priority="5" speed="13.89" to="node_01x05" type="highway.undefined" />
    <edge disallow="tram rail_urban rail rail_electric ship" from="node_01x08" id="xedge_01x16" numLanes="1" priority="5" speed="13.89" to="node_01x09" type="highway.undefined" />
    <edge disallow="tram rail_urban rail rail_electric ship" from="node_01x09" id="xedge_01x17" numLanes="1" priority="5" speed="13.89" to="node_01x08" type="highway.undefined" />
    <edge disallow="tram rail_urban rail rail_electric ship" from="node_01x09" id="xedge_01x18" numLanes="1" priority="5" speed="13.89" to="node_01x10" type="highway.undefined" />
    <edge disallow="tram rail_urban rail rail_electric ship" from="node_01x10" id="xedge_01x19" numLanes="1" priority="5" speed="13.89" to="node_01x09" type="highway.undefined" />
    <edge disallow="tram rail_urban rail rail_electric ship" from="node_01x10" id="xedge_01x20" numLanes="1" priority="5" speed="13.89" to="node_01x11" type="highway.undefined" />
    <edge disallow="tram rail_urban rail rail_electric ship" from="node_01x11" id="xedge_01x21" numLanes="1" priority="5" speed="13.89" to="node_01x10" type="highway.undefined" />
    <edge disallow="tram rail_urban rail rail_electric ship" from="node_01x12" id="xedge_01x24" numLanes="1" priority="5" speed="13.89" to="node_01x13" type="highway.undefined" />
    <edge disallow="tram rail_urban rail rail_electric ship" from="node_01x13" id="xedge_01x25" numLanes="1" priority="5" speed="13.89" to="node_01x12" type="highway.undefined" />
    <edge disallow="tram rail_urban rail rail_electric ship" from="node_01x13" id="xedge_01x26" numLanes="1" priority="5" speed="13.89" to="node_01x14" type="highway.undefined" />
    <edge disallow="tram rail_urban rail rail_electric ship" from="node_01x14" id="xedge_01x27" numLanes="1" priority="5" speed="13.89" to="node_01x13" type="highway.undefined" />
    <edge disallow="tram rail_urban rail rail_electric ship" from="node_01x14" id="xedge_01x28" numLanes="1" priority="5" speed="13.89" to="node_01x15" type="highway.undefined" />
    <edge disallow="tram rail_urban rail rail_electric ship" from="node_01x15" id="xedge_01x29" numLanes="1" priority="5" speed="13.89" to="node_01x14" type="highway.undefined" />
    <edge disallow="tram rail_urban rail rail_electric ship" from="node_01x16" id="xedge_01x32" numLanes="1" priority="5" speed="13.89" to="node_01x17" type="highway.undefined" />
    <edge disallow="tram rail_urban rail rail_electric ship" from="node_01x17" id="xedge_01x33" numLanes="1" priority="5" speed="13.89" to="node_01x16" type="highway.undefined" />
    <edge disallow="tram rail_urban rail rail_electric ship" from="node_01x17" id="xedge_01x34" numLanes="1" priority="5" speed="13.89" to="node_01x18" type="highway.undefined" />
    <edge disallow="tram rail_urban rail rail_electric ship" from="node_01x18" id="xedge_01x35" numLanes="1" priority="5" speed="13.89" to="node_01x17" type="highway.undefined" />
    <edge disallow="tram rail_urban rail rail_electric ship" from="node_01x19" id="xedge_01x38" numLanes="1" priority="5" speed="13.89" to="node_01x20" type="highway.undefined" />
    <edge disallow="tram rail_urban rail rail_electric ship" from="node_01x20" id="xedge_01x39" numLanes="1" priority="5" speed="13.89" to="node_01x19" type="highway.undefined" />
    <edge disallow="tram rail_urban rail rail_electric ship" from="node_02x01" id="xedge_02x02" numLanes="1" priority="5" speed="13.89" to="node_02x02" type="highway.undefined" />
    <edge disallow="tram rail_urban rail rail_electric ship" from="node_02x02" id="xedge_02x03" numLanes="1" priority="5" speed="13.89" to="node_02x01" type="highway.undefined" />
    <edge disallow="tram rail_urban rail rail_electric ship" from="node_02x05" id="xedge_02x10" numLanes="1" priority="5" speed="13.89" to="node_02x06" type="highway.undefined" />
    <edge disallow="tram rail_urban rail rail_electric ship" from="node_02x06" id="xedge_02x11" numLanes="1" priority="5" speed="13.89" to="node_02x05" type="highway.undefined" />
    <edge disallow="tram rail_urban rail rail_electric ship" from="node_02x06" id="xedge_02x12" numLanes="1" priority="5" speed="13.89" to="node_02x07" type="highway.undefined" />
    <edge disallow="tram rail_urban rail rail_electric ship" from="node_02x07" id="xedge_02x13" numLanes="1" priority="5" speed="13.89" to="node_02x06" type="highway.undefined" />
    <edge disallow="tram rail_urban rail rail_electric ship" from="node_02x07" id="xedge_02x14" numLanes="1" priority="5" speed="13.89" to="node_02x08" type="highway.undefined" />
    <edge disallow="tram rail_urban rail rail_electric ship" from="node_02x08" id="xedge_02x15" numLanes="1" priority="5" speed="13.89" to="node_02x07" type="highway.undefined" />
    <edge disallow="tram rail_urban rail rail_electric ship" from="node_02x08" id="xedge_02x16" numLanes="1" priority="5" speed="13.89" to="node_02x09" type="highway.undefined" />
    <edge disallow="tram rail_urban rail rail_electric ship" from="node_02x09" id="xedge_02x17" numLanes="1" priority="5" speed="13.89" to="node_02x08" type="highway.undefined" />
    <edge disallow="tram rail_urban rail rail_electric ship" from="node_02x11" id="xedge_02x22" numLanes="1" priority="5" speed="13.89" to="node_02x12" type="highway.undefined" />
    <edge disallow="tram rail_urban rail rail_electric ship" from="node_02x12" id="xedge_02x23" numLanes="1" priority="5" speed="13.89" to="node_02x11" type="highway.undefined" />
    <edge disallow="tram rail_urban rail rail_electric ship" from="node_02x14" id="xedge_02x28" numLanes="1" priority="5" speed="13.89" to="node_02x15" type="highway.undefined" />
    <edge disallow="tram rail_urban rail rail_electric ship" from="node_02x15" id="xedge_02x29" numLanes="1" priority="5" speed="13.89" to="node_02x14" type="highway.undefined" />
    <edge disallow="tram rail_urban rail rail_electric ship" from="node_02x16" id="xedge_02x32" numLanes="1" priority="5" speed="13.89" to="node_02x17" type="highway.undefined" />
    <edge disallow="tram rail_urban rail rail_electric ship" from="node_02x17" id="xedge_02x33" numLanes="1" priority="5" speed="13.89" to="node_02x16" type="highway.undefined" />
    <edge disallow="tram rail_urban rail rail_electric ship" from="node_02x18" id="xedge_02x36" numLanes="1" priority="5" speed="13.89" to="node_02x19" type="highway.undefined" />
    <edge disallow="tram rail_urban rail rail_electric ship" from="node_02x19" id="xedge_02x37" numLanes="1" priority="5" speed="13.89" to="node_02x18" type="highway.undefined" />
    <edge disallow="tram rail_urban rail rail_electric ship" from="node_02x19" id="xedge_02x38" numLanes="1" priority="5" speed="13.89" to="node_02x20" type="highway.undefined" />
    <edge disallow="tram rail_urban rail rail_electric ship" from="node_02x20" id="xedge_02x39" numLanes="1" priority="5" speed="13.89" to="node_02x19" type="highway.undefined" />
    <edge disallow="tram rail_urban rail rail_electric ship" from="node_03x00" id="xedge_03x00" numLanes="1" priority="5" speed="13.89" to="node_03x01" type="highway.undefined" />
    <edge disallow="tram rail_urban rail rail_electric ship" from="node_03x01" id="xedge_03x01" numLanes="1" priority="5" speed="13.89" to="node_03x00" type="highway.undefined" />
    <edge disallow="tram rail_urban rail rail_electric ship" from="node_03x01" id="xedge_03x02" numLanes="1" priority="5" speed="13.89" to="node_03x02" type="highway.undefined" />
    <edge disallow="tram rail_urban rail rail_electric ship" from="node_03x02" id="xedge_03x03" numLanes="1" priority="5" speed="13.89" to="node_03x01" type="highway.undefined" />
    <edge disallow="tram rail_urban rail rail_electric ship" from="node_03x02" id="xedge_03x04" numLanes="1" priority="5" speed="13.89" to="node_03x03" type="highway.undefined" />
    <edge disallow="tram rail_urban rail rail_electric ship" from="node_03x03" id="xedge_03x05" numLanes="1" priority="5" speed="13.89" to="node_03x02" type="highway.undefined" />
    <edge disallow="tram rail_urban rail rail_electric ship" from="node_03x03" id="xedge_03x06" numLanes="1" priority="5" speed="13.89" to="node_03x04" type="highway.undefined" />
    <edge disallow="tram rail_urban rail rail_electric ship" from="node_03x04" id="xedge_03x07" numLanes="1" priority="5" speed="13.89" to="node_03x03" type="highway.undefined" />
    <edge disallow="tram rail_urban rail rail_electric ship" from="node_03x05" id="xedge_03x10" numLanes="1" priority="5" speed="13.89" to="node_03x06" type="highway.undefined" />
    <edge disallow="tram rail_urban rail rail_electric ship" from="node_03x06" id="xedge_03x11" numLanes="1" priority="5" speed="13.89" to="node_03x05" type="highway.undefined" />
    <edge disallow="tram rail_urban rail rail_electric ship" from="node_03x06" id="xedge_03x12" numLanes="1" priority="5" speed="13.89" to="node_03x07" type="highway.undefined" />
    <edge disallow="tram rail_urban rail rail_electric ship" from="node_03x07" id="xedge_03x13" numLanes="1" priority="5" speed="13.89" to="node_03x06" type="highway.undefined" />
    <edge disallow="tram rail_urban rail rail_electric ship" from="node_03x08" id="xedge_03x16" numLanes="1" priority="5" speed="13.89" to="node_03x09" type="highway.undefined" />
    <edge disallow="tram rail_urban rail rail_electric ship" from="node_03x09" id="xedge_03x17" numLanes="1" priority="5" speed="13.89" to="node_03x08" type="highway.undefined" />
    <edge disallow="tram rail_urban rail rail_electric ship" from="node_03x09" id="xedge_03x18" numLanes="1" priority="5" speed="13.89" to="node_03x10" type="highway.undefined" />
    <edge disallow="tram rail_urban rail rail_electric ship" from="node_03x10" id="xedge_03x19" numLanes="1" priority="5" speed="13.89" to="node_03x09" type="highway.undefined" />
    <edge disallow="tram rail_urban rail rail_electric ship" from="node_03x10" id="xedge_03x20" numLanes="1" priority="5" speed="13.89" to="node_03x11" type="highway.undefined" />
    <edge disallow="tram rail_urban rail rail_electric ship" from="node_03x11" id="xedge_03x21" numLanes="1" priority="5" speed="13.89" to="node_03x10" type="highway.undefined" />
    <edge disallow="tram rail_urban rail rail_electric ship" from="node_03x13" id="xedge_03x26" numLanes="1" priority="5" speed="13.89" to="node_03x14" type="highway.undefined" />
    <edge disallow="tram rail_urban rail rail_electric ship" from="node_03x14" id="xedge_03x27" numLanes="1" priority="5" speed="13.89" to="node_03x13" type="highway.undefined" />
    <edge disallow="tram rail_urban rail rail_electric ship" from="node_03x14" id="xedge_03x28" numLanes="1" priority="5" speed="13.89" to="node_03x15" type="highway.undefined" />
    <edge disallow="tram rail_urban rail rail_electric ship" from="node_03x15" id="xedge_03x29" numLanes="1" priority="5" speed="13.89" to="node_03x14" type="highway.undefined" />
    <edge disallow="tram rail_urban rail rail_electric ship" from="node_03x15" id="xedge_03x30" numLanes="1" priority="5" speed="13.89" to="node_03x16" type="highway.undefined" />
    <edge disallow="tram rail_urban rail rail_electric ship" from="node_03x16" id="xedge_03x31" numLanes="1" priority="5" speed="13.89" to="node_03x15" type="highway.undefined" />
    <edge disallow="tram rail_urban rail rail_electric ship" from="node_03x17" id="xedge_03x34" numLanes="1" priority="5" speed="13.89" to="node_03x18" type="highway.undefined" />
    <edge disallow="tram rail_urban rail rail_electric ship" from="node_03x18" id="xedge_03x35" numLanes="1" priority="5" speed="13.89" to="node_03x17" type="highway.undefined" />
    <edge disallow="tram rail_urban rail rail_electric ship" from="node_03x19" id="xedge_03x38" numLanes="1" priority="5" speed="13.89" to="node_03x20" type="highway.undefined" />
    <edge disallow="tram rail_urban rail rail_electric ship" from="node_03x20" id="xedge_03x39" numLanes="1" priority="5" speed="13.89" to="node_03x19" type="highway.undefined" />
    <edge disallow="tram rail_urban rail rail_electric ship" from="node_04x02" id="xedge_04x04" numLanes="1" priority="5" speed="13.89" to="node_04x03" type="highway.undefined" />
    <edge disallow="tram rail_urban rail rail_electric ship" from="node_04x03" id="xedge_04x05" numLanes="1" priority="5" speed="13.89" to="node_04x02" type="highway.undefined" />
    <edge disallow="tram rail_urban rail rail_electric ship" from="node_04x04" id="xedge_04x08" numLanes="1" priority="5" speed="13.89" to="node_04x05" type="highway.undefined" />
    <edge disallow="tram rail_urban rail rail_electric ship" from="node_04x05" id="xedge_04x09" numLanes="1" priority="5" speed="13.89" to="node_04x04" type="highway.undefined" />
    <edge disallow="tram rail_urban rail rail_electric ship" from="node_04x06" id="xedge_04x12" numLanes="1" priority="5" speed="13.89" to="node_04x07" type="highway.undefined" />
    <edge disallow="tram rail_urban rail rail_electric ship" from="node_04x07" id="xedge_04x13" numLanes="1" priority="5" speed="13.89" to="node_04x06" type="highway.undefined" />
    <edge disallow="tram rail_urban rail rail_electric ship" from="node_04x08" id="xedge_04x16" numLanes="1" priority="5" speed="13.89" to="node_04x09" type="highway.undefined" />
    <edge disallow="tram rail_urban rail rail_electric ship" from="node_04x09" id="xedge_04x17" numLanes="1" priority="5" speed="13.89" to="node_04x08" type="highway.undefined" />
    <edge disallow="tram rail_urban rail rail_electric ship" from="node_04x09" id="xedge_04x18" numLanes="1" priority="5" speed="13.89" to="node_04x10" type="highway.undefined" />
    <edge disallow="tram rail_urban rail rail_electric ship" from="node_04x10" id="xedge_04x19" numLanes="1" priority="5" speed="13.89" to="node_04x09" type="highway.undefined" />
    <edge disallow="tram rail_urban rail rail_electric ship" from="node_04x10" id="xedge_04x20" numLanes="1" priority="5" speed="13.89" to="node_04x11" type="highway.undefined" />
    <edge disallow="tram rail_urban rail rail_electric ship" from="node_04x11" id="xedge_04x21" numLanes="1" priority="5" speed="13.89" to="node_04x10" type="highway.undefined" />
    <edge disallow="tram rail_urban rail rail_electric ship" from="node_04x11" id="xedge_04x22" numLanes="1" priority="5" speed="13.89" to="node_04x12" type="highway.undefined" />
    <edge disallow="tram rail_urban rail rail_electric ship" from="node_04x12" id="xedge_04x23" numLanes="1" priority="5" speed="13.89" to="node_04x11" type="highway.undefined" />
    <edge disallow="tram rail_urban rail rail_electric ship" from="node_04x12" id="xedge_04x24" numLanes="1" priority="5" speed="13.89" to="node_04x13" type="highway.undefined" />
    <edge disallow="tram rail_urban rail rail_electric ship" from="node_04x13" id="xedge_04x25" numLanes="1" priority="5" speed="13.89" to="node_04x12" type="highway.undefined" />
    <edge disallow="tram rail_urban rail rail_electric ship" from="node_04x14" id="xedge_04x28" numLanes="1" priority="5" speed="13.89" to="node_04x15" type="highway.undefined" />
    <edge disallow="tram rail_urban rail rail_electric ship" from="node_04x15" id="xedge_04x29" numLanes="1" priority="5" speed="13.89" to="node_04x14" type="highway.undefined" />
    <edge disallow="tram rail_urban rail rail_electric ship" from="node_04x15" id="xedge_04x30" numLanes="1" priority="5" speed="13.89" to="node_04x16" type="highway.undefined" />
    <edge disallow="tram rail_urban rail rail_electric ship" from="node_04x16" id="xedge_04x31" numLanes="1" priority="5" speed="13.89" to="node_04x15" type="highway.undefined" />
    <edge disallow="tram rail_urban rail rail_electric ship" from="node_04x18" id="xedge_04x36" numLanes="1" priority="5" speed="13.89" to="node_04x19" type="highway.undefined" />
    <edge disallow="tram rail_urban rail rail_electric ship" from="node_04x19" id="xedge_04x37" numLanes="1" priority="5" speed="13.89" to="node_04x18" type="highway.undefined" />
    <edge disallow="tram rail_urban rail rail_electric ship" from="node_04x19" id="xedge_04x38" numLanes="1" priority="5" speed="13.89" to="node_04x20" type="highway.undefined" />
    <edge disallow="tram rail_urban rail rail_electric ship" from="node_04x20" id="xedge_04x39" numLanes="1" priority="5" speed="13.89" to="node_04x19" type="highway.undefined" />
    <edge disallow="tram rail_urban rail rail_electric ship" from="node_05x04" id="xedge_05x08" numLanes="1" priority="5" speed="13.89" to="node_05x05" type="highway.undefined" />
    <edge disallow="tram rail_urban rail rail_electric ship" from="node_05x05" id="xedge_05x09" numLanes="1" priority="5" speed="13.89" to="node_05x04" type="highway.undefined" />
    <edge disallow="tram rail_urban rail rail_electric ship" from="node_05x07" id="xedge_05x14" numLanes="1" priority="5" speed="13.89" to="node_05x08" type="highway.undefined" />
    <edge disallow="tram rail_urban rail rail_electric ship" from="node_05x08" id="xedge_05x15" numLanes="1" priority="5" speed="13.89" to="node_05x07" type="highway.undefined" />
    <edge disallow="tram rail_urban rail rail_electric ship" from="node_05x08" id="xedge_05x16" numLanes="1" priority="5" speed="13.89" to="node_05x09" type="highway.undefined" />
    <edge disallow="tram rail_urban rail rail_electric ship" from="node_05x09" id="xedge_05x17" numLanes="1" priority="5" speed="13.89" to="node_05x08" type="highway.undefined" />
    <edge disallow="tram rail_urban rail rail_electric ship" from="node_05x09" id="xedge_05x18" numLanes="1" priority="5" speed="13.89" to="node_05x10" type="highway.undefined" />
    <edge disallow="tram rail_urban rail rail_electric ship" from="node_05x10" id="xedge_05x19" numLanes="1" priority="5" speed="13.89" to="node_05x09" type="highway.undefined" />
    <edge disallow="tram rail_urban rail rail_electric ship" from="node_05x10" id="xedge_05x20" numLanes="1" priority="5" speed="13.89" to="node_05x11" type="highway.undefined" />
    <edge disallow="tram rail_urban rail rail_electric ship" from="node_05x11" id="xedge_05x21" numLanes="1" priority="5" speed="13.89" to="node_05x10" type="highway.undefined" />
    <edge disallow="tram rail_urban rail rail_electric ship" from="node_05x11" id="xedge_05x22" numLanes="1" priority="5" speed="13.89" to="node_05x12" type="highway.undefined" />
    <edge disallow="tram rail_urban rail rail_electric ship" from="node_05x12" id="xedge_05x23" numLanes="1" priority="5" speed="13.89" to="node_05x11" type="highway.undefined" />
    <edge disallow="tram rail_urban rail rail_electric ship" from="node_05x12" id="xedge_05x24" numLanes="1" priority="5" speed="13.89" to="node_05x13" type="highway.undefined" />
    <edge disallow="tram rail_urban rail rail_electric ship" from="node_05x13" id="xedge_05x25" numLanes="1" priority="5" speed="13.89" to="node_05x12" type="highway.undefined" />
    <edge disallow="tram rail_urban rail rail_electric ship" from="node_05x13" id="xedge_05x26" numLanes="1" priority="5" speed="13.89" to="node_05x14" type="highway.undefined" />
    <edge disallow="tram rail_urban rail rail_electric ship" from="node_05x14" id="xedge_05x27" numLanes="1" priority="5" speed="13.89" to="node_05x13" type="highway.undefined" />
    <edge disallow="tram rail_urban rail rail_electric ship" from="node_05x14" id="xedge_05x28" numLanes="1" priority="5" speed="13.89" to="node_05x15" type="highway.undefined" />
    <edge disallow="tram rail_urban rail rail_electric ship" from="node_05x15" id="xedge_05x29" numLanes="1" priority="5" speed="13.89" to="node_05x14" type="highway.undefined" />
    <edge disallow="tram rail_urban rail rail_electric ship" from="node_05x15" id="xedge_05x30" numLanes="1" priority="5" speed="13.89" to="node_05x16" type="highway.undefined" />
    <edge disallow="tram rail_urban rail rail_electric ship" from="node_05x16" id="xedge_05x31" numLanes="1" priority="5" speed="13.89" to="node_05x15" type="highway.undefined" />
    <edge disallow="tram rail_urban rail rail_electric ship" from="node_05x16" id="xedge_05x32" numLanes="1" priority="5" speed="13.89" to="node_05x17" type="highway.undefined" />
    <edge disallow="tram rail_urban rail rail_electric ship" from="node_05x17" id="xedge_05x33" numLanes="1" priority="5" speed="13.89" to="node_05x16" type="highway.undefined" />
    <edge disallow="tram rail_urban rail rail_electric ship" from="node_05x17" id="xedge_05x34" numLanes="1" priority="5" speed="13.89" to="node_05x18" type="highway.undefined" />
    <edge disallow="tram rail_urban rail rail_electric ship" from="node_05x18" id="xedge_05x35" numLanes="1" priority="5" speed="13.89" to="node_05x17" type="highway.undefined" />
    <edge disallow="tram rail_urban rail rail_electric ship" from="node_05x18" id="xedge_05x36" numLanes="1" priority="5" speed="13.89" to="node_05x19" type="highway.undefined" />
    <edge disallow="tram rail_urban rail rail_electric ship" from="node_05x19" id="xedge_05x37" numLanes="1" priority="5" speed="13.89" to="node_05x18" type="highway.undefined" />
    <edge disallow="tram rail_urban rail rail_electric ship" from="node_06x00" id="xedge_06x00" numLanes="1" priority="5" speed="13.89" to="node_06x01" type="highway.undefined" />
    <edge disallow="tram rail_urban rail rail_electric ship" from="node_06x01" id="xedge_06x01" numLanes="1" priority="5" speed="13.89" to="node_06x00" type="highway.undefined" />
    <edge disallow="tram rail_urban rail rail_electric ship" from="node_06x02" id="xedge_06x04" numLanes="1" priority="5" speed="13.89" to="node_06x03" type="highway.undefined" />
    <edge disallow="tram rail_urban rail rail_electric ship" from="node_06x03" id="xedge_06x05" numLanes="1" priority="5" speed="13.89" to="node_06x02" type="highway.undefined" />
    <edge disallow="tram rail_urban rail rail_electric ship" from="node_06x04" id="xedge_06x08" numLanes="1" priority="5" speed="13.89" to="node_06x05" type="highway.undefined" />
    <edge disallow="tram rail_urban rail rail_electric ship" from="node_06x05" id="xedge_06x09" numLanes="1" priority="5" speed="13.89" to="node_06x04" type="highway.undefined" />
    <edge disallow="tram rail_urban rail rail_electric ship" from="node_06x05" id="xedge_06x10" numLanes="1" priority="5" speed="13.89" to="node_06x06" type="highway.undefined" />
    <edge disallow="tram rail_urban rail rail_electric ship" from="node_06x06" id="xedge_06x11" numLanes="1" priority="5" speed="13.89" to="node_06x05" type="highway.undefined" />
    <edge disallow="tram rail_urban rail rail_electric ship" from="node_06x06" id="xedge_06x12" numLanes="1" priority="5" speed="13.89" to="node_06x07" type="highway.undefined" />
    <edge disallow="tram rail_urban rail rail_electric ship" from="node_06x07" id="xedge_06x13" numLanes="1" priority="5" speed="13.89" to="node_06x06" type="highway.undefined" />
    <edge disallow="tram rail_urban rail rail_electric ship" from="node_06x07" id="xedge_06x14" numLanes="1" priority="5" speed="13.89" to="node_06x08" type="highway.undefined" />
    <edge disallow="tram rail_urban rail rail_electric ship" from="node_06x08" id="xedge_06x15" numLanes="1" priority="5" speed="13.89" to="node_06x07" type="highway.undefined" />
    <edge disallow="tram rail_urban rail rail_electric ship" from="node_06x08" id="xedge_06x16" numLanes="1" priority="5" speed="13.89" to="node_06x09" type="highway.undefined" />