<?xml version="1.0" encoding="UTF-8"?>

<!-- generated on 10/06/16 11:56:11 by SUMO netconvert Version 0.27.1
<?xml version="1.0" encoding="UTF-8"?>

<configuration xmlns:xsi="http://www.w3.org/2001/XMLSchema-instance" xsi:noNamespaceSchemaLocation="http://sumo.dlr.de/xsd/netconvertConfiguration.xsd">

    <input>
        <sumo-net-file value="F:\Capstone\AUH\osm\island.net.xml"/>
    </input>

    <output>
        <plain-output-prefix value="island"/>
    </output>

    <processing>
        <no-turnarounds value="true"/>
        <offset.disable-normalization value="true"/>
        <lefthand value="false"/>
        <junctions.corner-detail value="0"/>
    </processing>

</configuration>
-->

<nodes version="0.27" xmlns:xsi="http://www.w3.org/2001/XMLSchema-instance" xsi:noNamespaceSchemaLocation="http://sumo.dlr.de/xsd/nodes_file.xsd">
    <location netOffset="-224973.31,-2700122.99" convBoundary="2208.92,522.44,21219.92,15402.46" origBoundary="54.286966,24.391306,54.609531,24.591038" projParameter="+proj=utm +zone=40 +ellps=WGS84 +datum=WGS84 +units=m +no_defs"/>

    <node id="-170405842-AddedOffRampNode" x="17782.67" y="3111.06" type="priority"/>
    <node id="-227103756#2-AddedOffRampNode" x="12253.07" y="10273.92" type="priority"/>
    <node id="-243197772#5-AddedOffRampNode" x="11357.37" y="11167.90" type="priority"/>
    <node id="1003388266" x="9211.77" y="7843.76" type="traffic_light" tl="GS_1003388266"/>
    <node id="1003388268" x="10104.41" y="7647.38" type="priority"/>
    <node id="1003388284" x="9157.79" y="7847.26" type="priority"/>
    <node id="1003388319" x="10172.80" y="7642.66" type="traffic_light" tl="GS_1003388319"/>
    <node id="100596053#3-AddedOffRampNode" x="8269.74" y="11974.05" type="priority"/>
    <node id="100596053#6-AddedOffRampNode" x="8712.19" y="11723.58" type="priority"/>
    <node id="100596086#4-AddedOnRampNode" x="9990.37" y="10135.54" type="priority"/>
    <node id="1024577672" x="3380.32" y="9011.83" type="priority"/>
    <node id="1024577817" x="3399.16" y="8987.87" type="priority"/>
    <node id="1024797232" x="3410.06" y="7794.91" type="priority"/>
    <node id="1024797388" x="2393.19" y="7618.78" type="priority"/>
    <node id="1024797617" x="2340.72" y="8113.59" type="unregulated"/>
    <node id="1024797763" x="2343.00" y="8104.11" type="unregulated"/>
    <node id="1024798120" x="3175.71" y="7666.08" type="priority"/>
    <node id="1026500732" x="18942.91" y="3352.66" type="priority"/>
    <node id="1026500754" x="18917.19" y="3335.29" type="priority"/>
    <node id="1026593915" x="9857.99" y="11164.28" type="priority"/>
    <node id="1026593918" x="9834.30" y="11110.27" type="priority"/>
    <node id="1026593919" x="9841.70" y="11155.29" type="priority"/>
    <node id="1026593951" x="7382.02" y="11481.01" type="priority"/>
    <node id="1026593953" x="9908.90" y="11164.09" type="priority"/>
    <node id="1026593958" x="7387.84" y="11534.46" type="priority"/>
    <node id="1026645559" x="6784.82" y="10811.17" type="priority"/>
    <node id="1026645578" x="6458.59" y="9832.30" type="priority"/>
    <node id="1026645624" x="3603.38" y="8780.94" type="priority"/>
    <node id="1026645661" x="5878.41" y="9286.71" type="priority"/>
    <node id="1026646011" x="6501.97" y="10505.15" type="priority"/>
    <node id="1026646185" x="6741.29" y="10825.40" type="priority"/>
    <node id="1026646224" x="6511.70" y="9888.98" type="priority"/>
    <node id="1026646233" x="6526.47" y="10477.36" type="priority"/>
    <node id="1026646302" x="6526.09" y="9836.65" type="priority"/>
    <node id="1026646387" x="6530.55" y="10505.31" type="priority"/>
    <node id="1026646515" x="6472.01" y="9882.01" type="priority"/>
    <node id="1026714663" x="7909.94" y="11683.14" type="priority"/>
    <node id="1026714666" x="8043.99" y="12103.01" type="priority"/>
    <node id="1026714706" x="7750.20" y="11798.79" type="priority"/>
    <node id="1026714719" x="7161.81" y="11401.52" type="priority"/>
    <node id="1026714738" x="8071.20" y="11955.22" type="priority"/>
    <node id="1026714743" x="7788.68" y="11887.96" type="priority"/>
    <node id="1026714899" x="7831.48" y="11855.75" type="priority"/>
    <node id="1026714967" x="8140.86" y="11840.71" type="priority"/>
    <node id="1026714971" x="7588.17" y="11682.58" type="priority"/>
    <node id="1026714978" x="7918.79" y="11699.88" type="priority"/>
    <node id="1027680400" x="7121.61" y="11093.32" type="priority"/>
    <node id="1027680402" x="7084.51" y="11097.62" type="priority"/>
    <node id="1027680403" x="7119.69" y="11085.07" type="priority"/>
    <node id="1027680414" x="7133.02" y="11109.05" type="priority"/>
    <node id="1027680417" x="7100.36" y="11074.75" type="priority"/>
    <node id="1027680423" x="7094.10" y="11076.73" type="priority"/>
    <node id="1027680429" x="7112.67" y="11109.21" type="priority"/>
    <node id="1027695860" x="7049.96" y="11070.72" type="priority"/>
    <node id="1027695868" x="7209.46" y="10444.47" type="priority"/>
    <node id="1027695976" x="7169.47" y="10447.88" type="priority"/>
    <node id="1032819771" x="11668.64" y="8653.84" type="priority"/>
    <node id="1038949780" x="6913.69" y="7258.78" type="priority"/>
    <node id="1038949782" x="7080.37" y="7295.18" type="priority"/>
    <node id="1038949784" x="6982.34" y="7242.60" type="priority"/>
    <node id="1038949792" x="7075.49" y="7328.53" type="priority"/>
    <node id="1038949794" x="6900.13" y="7186.60" type="priority"/>
    <node id="1038949799" x="6898.50" y="7248.34" type="priority"/>
    <node id="1038949802" x="6966.82" y="7170.70" type="priority"/>
    <node id="1038949805" x="6978.46" y="7262.04" type="priority"/>
    <node id="1038949808" x="6976.99" y="7183.10" type="priority"/>
    <node id="1038949809" x="7047.07" y="7302.18" type="priority"/>
    <node id="1038949815" x="6915.29" y="7178.55" type="priority"/>
    <node id="1038949816" x="6681.34" y="6890.90" type="priority"/>
    <node id="1038949826" x="6799.24" y="7066.02" type="priority"/>
    <node id="1039020501" x="6293.03" y="6302.95" type="priority"/>
    <node id="1039020601" x="6010.84" y="6319.47" type="priority"/>
    <node id="1039154231" x="6328.24" y="6639.99" type="priority"/>
    <node id="1039154404" x="5836.26" y="6401.01" type="priority"/>
    <node id="1039154426" x="6299.97" y="6804.43" type="priority"/>
    <node id="1039154598" x="6172.61" y="6832.47" type="priority"/>
    <node id="1039154670" x="6684.85" y="6076.76" type="unregulated"/>
    <node id="1039154728" x="6010.30" y="6369.89" type="priority"/>
    <node id="1039154826" x="6070.72" y="6520.86" type="priority"/>
    <node id="1039154880" x="5896.72" y="6452.21" type="priority"/>
    <node id="1039155143" x="6676.48" y="6086.16" type="unregulated"/>
    <node id="1039155187" x="6018.08" y="6403.34" type="priority"/>
    <node id="1039155231" x="5857.05" y="6423.11" type="priority"/>
    <node id="1039155444" x="5913.68" y="6401.69" type="priority"/>
    <node id="1039155450" x="5997.62" y="6425.60" type="priority"/>
    <node id="1039169474" x="5048.97" y="6399.88" type="priority"/>
    <node id="1039169596" x="4872.66" y="6581.57" type="priority"/>
    <node id="1039169698" x="4943.82" y="6615.80" type="priority"/>
    <node id="1039194280" x="6415.35" y="6161.02" type="priority"/>
    <node id="1039211522" x="6262.60" y="6337.83" type="priority"/>
    <node id="1039211547" x="6313.41" y="6279.31" type="priority"/>
    <node id="1039211548" x="6383.84" y="6468.26" type="priority"/>
    <node id="1039211649" x="6518.16" y="6450.33" type="priority"/>
    <node id="1039227951" x="6048.47" y="6941.43" type="priority"/>
    <node id="1040646594" x="7904.62" y="6055.78" type="priority"/>
    <node id="1040646620" x="7674.67" y="6309.04" type="priority"/>
    <node id="1040646625" x="7721.19" y="6238.22" type="priority"/>
    <node id="1040646642" x="7243.69" y="6201.12" type="priority"/>
    <node id="1040646655" x="7738.20" y="5691.62" type="priority"/>
    <node id="1040646657" x="7905.80" y="6038.14" type="priority"/>
    <node id="1040646663" x="7811.24" y="6167.52" type="priority"/>
    <node id="1040646738" x="7170.14" y="6260.69" type="priority"/>
    <node id="1040646759" x="7671.60" y="5694.32" type="priority"/>
    <node id="1040646768" x="7614.06" y="5789.93" type="priority"/>
    <node id="1040646783" x="7592.34" y="5790.36" type="priority"/>
    <node id="1040646784" x="7611.77" y="6368.11" type="priority"/>
    <node id="1040646801" x="7677.94" y="6324.30" type="priority"/>
    <node id="1040646807" x="7623.49" y="5797.95" type="priority"/>
    <node id="1040646839" x="7609.19" y="5770.71" type="priority"/>
    <node id="1040646857" x="7190.35" y="6194.45" type="priority"/>
    <node id="1040646914" x="7739.43" y="5896.59" type="priority"/>
    <node id="1040646970" x="7982.81" y="5897.60" type="priority"/>
    <node id="1040646978" x="7728.82" y="6266.14" type="priority"/>
    <node id="1040647012" x="7169.32" y="6199.17" type="priority"/>
    <node id="1040647017" x="7802.70" y="6140.94" type="priority"/>
    <node id="1040647019" x="7666.64" y="6303.34" type="priority"/>
    <node id="1040647040" x="7694.79" y="6305.49" type="priority"/>
    <node id="1040647108" x="7992.70" y="5956.18" type="priority"/>
    <node id="1040647116" x="7729.01" y="6244.74" type="priority"/>
    <node id="1040647120" x="7188.98" y="6267.52" type="priority"/>
    <node id="1040647164" x="7249.82" y="6244.33" type="priority"/>
    <node id="1040647183" x="7749.19" y="6241.77" type="priority"/>
    <node id="1040647196" x="7920.40" y="5966.91" type="priority"/>
    <node id="1040647198" x="7810.22" y="6147.33" type="priority"/>
    <node id="1040647267" x="7778.24" y="5929.61" type="priority"/>
    <node id="1040647286" x="7234.92" y="6184.84" type="priority"/>
    <node id="1040647299" x="7257.09" y="6277.24" type="priority"/>
    <node id="1040647305" x="7827.69" y="6147.84" type="priority"/>
    <node id="1040661947" x="8004.37" y="7222.16" type="priority"/>
    <node id="1040661982" x="7952.17" y="7151.83" type="priority"/>
    <node id="1040661983" x="7900.60" y="7214.52" type="priority"/>
    <node id="1040662003" x="7994.38" y="7187.97" type="priority"/>
    <node id="1052165754" x="7207.53" y="7454.43" type="priority"/>
    <node id="1052165761" x="9241.47" y="7917.35" type="traffic_light" tl="GS_1052165761"/>
    <node id="1052165762" x="6308.89" y="7892.75" type="priority"/>
    <node id="1052165764" x="8434.97" y="7000.28" type="priority"/>
    <node id="1052165777" x="8780.80" y="6625.91" type="priority"/>
    <node id="1052165782" x="8762.64" y="6647.42" type="priority"/>
    <node id="1052165801" x="8000.24" y="8205.35" type="priority"/>
    <node id="1052165805" x="6163.48" y="8165.88" type="priority"/>
    <node id="1052165808" x="7275.55" y="7459.67" type="priority"/>
    <node id="1052165811" x="6319.38" y="7957.22" type="priority"/>
    <node id="1052165819" x="5754.25" y="8645.54" type="priority"/>
    <node id="1052165830" x="7515.93" y="7748.49" type="priority"/>
    <node id="1052165833" x="8559.48" y="6596.25" type="priority"/>
    <node id="1052165835" x="7527.33" y="7816.37" type="priority"/>
    <node id="1052165853" x="6371.75" y="7894.19" type="priority"/>
    <node id="1052165876" x="7217.52" y="7529.16" type="priority"/>
    <node id="1052165892" x="9185.27" y="7806.75" type="priority"/>
    <node id="1052165943" x="9300.31" y="6523.37" type="priority"/>
    <node id="1052165944" x="7205.51" y="7520.59" type="priority"/>
    <node id="1052165945" x="8659.84" y="6562.17" type="priority"/>
    <node id="1052165950" x="9338.42" y="6530.45" type="priority"/>
    <node id="1052165953" x="7507.76" y="7811.14" type="priority"/>
    <node id="1052165957" x="8367.19" y="6942.82" type="priority"/>
    <node id="1052165958" x="8736.39" y="6678.51" type="priority"/>
    <node id="1052165961" x="8753.35" y="6760.96" type="priority"/>
    <node id="1052165967" x="7575.95" y="7760.32" type="priority"/>
    <node id="1052165974" x="8583.02" y="6616.25" type="priority"/>
    <node id="1052165981" x="7270.52" y="7514.61" type="priority"/>
    <node id="1052165984" x="8433.53" y="7072.36" type="priority"/>
    <node id="1052165987" x="9224.68" y="7935.87" type="priority"/>
    <node id="1052165993" x="6367.57" y="7877.49" type="priority"/>
    <node id="1052165997" x="7569.16" y="7739.89" type="priority"/>
    <node id="1052166004" x="6371.42" y="7946.20" type="priority"/>
    <node id="1052166008" x="6301.82" y="7956.69" type="priority"/>
    <node id="1052166014" x="5991.97" y="8291.10" type="priority"/>
    <node id="1052166021" x="9231.81" y="7851.40" type="priority"/>
    <node id="1052166042" x="6300.37" y="7910.59" type="priority"/>
    <node id="1052166058" x="8691.91" y="6640.13" type="priority"/>
    <node id="1052166065" x="5702.19" y="8659.36" type="priority"/>
    <node id="1052166069" x="9157.08" y="7939.01" type="traffic_light" tl="GS_1052166069"/>
    <node id="1052166093" x="8306.01" y="7017.05" type="priority"/>
    <node id="1052166097" x="6363.01" y="7958.73" type="priority"/>
    <node id="1052166103" x="8374.50" y="7074.39" type="priority"/>
    <node id="1052166130" x="7508.84" y="7761.82" type="priority"/>
    <node id="1052166149" x="7203.72" y="7476.52" type="priority"/>
    <node id="1052166152" x="6231.97" y="8222.95" type="priority"/>
    <node id="1052166177" x="8042.37" y="8202.65" type="priority"/>
    <node id="1052166190" x="8384.21" y="6957.25" type="priority"/>
    <node id="1052166195" x="7259.51" y="7526.60" type="priority"/>
    <node id="1052166208" x="8739.21" y="6585.56" type="priority"/>
    <node id="1052166211" x="9135.43" y="7931.03" type="priority"/>
    <node id="1052166235" x="8717.00" y="6609.57" type="priority"/>
    <node id="1052166254" x="7262.54" y="7452.91" type="priority"/>
    <node id="1052166273" x="8325.50" y="7033.38" type="priority"/>
    <node id="1052166282" x="9130.99" y="7857.62" type="traffic_light" tl="GS_1052166282"/>
    <node id="1061694756" x="7315.54" y="10277.93" type="priority"/>
    <node id="1061694758" x="7123.69" y="10384.51" type="priority"/>
    <node id="1061694793" x="7469.46" y="10601.46" type="priority"/>
    <node id="1061694825" x="7793.61" y="10859.97" type="priority"/>
    <node id="1061694842" x="7555.16" y="10371.96" type="priority"/>
    <node id="1061694849" x="7516.93" y="10423.52" type="priority"/>
    <node id="1061694869" x="7640.16" y="10433.72" type="priority"/>
    <node id="1061694877" x="7308.94" y="10415.26" type="priority"/>
    <node id="1061694878" x="7496.94" y="10450.49" type="priority"/>
    <node id="1061694893" x="7846.58" y="10862.03" type="priority"/>
    <node id="1061694910" x="7294.91" y="10882.38" type="priority"/>
    <node id="1061694920" x="7451.08" y="10512.34" type="priority"/>
    <node id="1061694922" x="7599.61" y="10487.01" type="priority"/>
    <node id="1061694936" x="7218.55" y="10348.70" type="priority"/>
    <node id="1061694972" x="7295.13" y="10840.05" type="priority"/>
    <node id="1061695018" x="7515.37" y="10256.52" type="priority"/>
    <node id="1061695019" x="7444.69" y="10637.70" type="priority"/>
    <node id="1061695057" x="7489.69" y="10324.37" type="priority"/>
    <node id="1061695071" x="7458.66" y="10630.81" type="priority"/>
    <node id="1061695075" x="7326.35" y="10819.72" type="priority"/>
    <node id="1061695080" x="7433.13" y="10403.30" type="priority"/>
    <node id="1061695098" x="7351.83" y="10550.75" type="priority"/>
    <node id="1061695118" x="7645.70" y="10561.22" type="priority"/>
    <node id="1061695127" x="7463.80" y="10425.98" type="priority"/>
    <node id="1061695134" x="7379.36" y="10855.76" type="priority"/>
    <node id="1061695138" x="7412.42" y="10691.51" type="priority"/>
    <node id="1061695169" x="7579.08" y="10513.97" type="priority"/>
    <node id="1061695184" x="7418.20" y="10487.88" type="priority"/>
    <node id="1061695185" x="7538.04" y="10395.04" type="priority"/>
    <node id="1061695201" x="7540.09" y="10275.03" type="priority"/>
    <node id="1061695205" x="7727.57" y="10622.99" type="priority"/>
    <node id="1061695216" x="7652.18" y="10417.94" type="priority"/>
    <node id="1061695230" x="7621.49" y="10458.27" type="priority"/>
    <node id="1061695235" x="7567.83" y="10354.86" type="priority"/>
    <node id="1061695241" x="7704.52" y="10480.49" type="priority"/>
    <node id="1061695242" x="7638.26" y="10744.50" type="priority"/>
    <node id="1061695244" x="7097.12" y="10434.08" type="priority"/>
    <node id="1061695246" x="7388.39" y="10465.68" type="priority"/>
    <node id="1061695253" x="7248.22" y="10371.83" type="priority"/>
    <node id="1061695255" x="7715.97" y="10464.86" type="priority"/>
    <node id="1061695257" x="7301.07" y="10267.20" type="priority"/>
    <node id="1061695271" x="7877.19" y="10755.39" type="priority"/>
    <node id="1061695272" x="7852.75" y="10903.93" type="traffic_light" tl="GS_1061695272"/>
    <node id="1061695276" x="7326.10" y="10791.02" type="priority"/>
    <node id="1061695290" x="7831.45" y="10853.26" type="traffic_light" tl="GS_1061695290"/>
    <node id="1061695297" x="7516.50" y="10287.02" type="priority"/>
    <node id="1063911773" x="8700.22" y="7490.67" type="priority"/>
    <node id="1063911783" x="9701.96" y="7256.94" type="priority"/>
    <node id="1063911811" x="9816.26" y="7030.70" type="priority"/>
    <node id="1063911832" x="9886.21" y="7033.16" type="priority"/>
    <node id="1063911843" x="9645.48" y="7265.50" type="priority"/>
    <node id="1063911879" x="9740.14" y="7121.90" type="priority"/>
    <node id="1063911900" x="8881.18" y="7281.92" type="priority"/>
    <node id="1063911922" x="9760.58" y="7186.42" type="priority"/>
    <node id="1063911973" x="8655.67" y="7493.32" type="priority"/>
    <node id="1063911985" x="8632.41" y="7434.44" type="priority"/>
    <node id="1065139559" x="6395.53" y="8642.01" type="priority"/>
    <node id="1065139562" x="6932.79" y="8447.10" type="priority"/>
    <node id="1065139565" x="6539.78" y="8547.72" type="priority"/>
    <node id="1065139574" x="6999.37" y="8479.43" type="priority"/>
    <node id="1065139577" x="6352.97" y="8736.58" type="priority"/>
    <node id="1065139584" x="6425.43" y="8531.29" type="priority"/>
    <node id="1065139585" x="6367.27" y="9243.87" type="priority"/>
    <node id="1065139586" x="6522.12" y="8527.71" type="priority"/>
    <node id="1065139588" x="6461.31" y="8754.95" type="priority"/>
    <node id="1065139592" x="6556.07" y="8561.70" type="priority"/>
    <node id="1065139599" x="6296.85" y="9183.89" type="priority"/>
    <node id="1065139613" x="5782.64" y="8724.18" type="priority"/>
    <node id="1065139623" x="6938.27" y="8484.88" type="priority"/>
    <node id="1065139625" x="6325.29" y="8579.55" type="priority"/>
    <node id="1065139627" x="6298.52" y="9241.28" type="priority"/>
    <node id="1065139628" x="6479.06" y="8459.99" type="priority"/>
    <node id="1065139630" x="6370.42" y="8714.69" type="priority"/>
    <node id="1065139633" x="6366.34" y="9221.41" type="priority"/>
    <node id="1065139636" x="5771.02" y="8653.15" type="priority"/>
    <node id="1065139640" x="6360.47" y="8608.86" type="priority"/>
    <node id="1065139644" x="6576.99" y="8535.38" type="priority"/>
    <node id="1065139649" x="6860.33" y="8382.70" type="priority"/>
    <node id="1065139650" x="6372.91" y="9180.19" type="priority"/>
    <node id="1065139655" x="6312.13" y="9247.96" type="priority"/>
    <node id="1065139665" x="6290.49" y="8694.56" type="priority"/>
    <node id="1065139686" x="6504.61" y="8549.99" type="priority"/>
    <node id="1065139690" x="6361.36" y="8781.86" type="priority"/>
    <node id="1065139707" x="6381.80" y="8629.02" type="priority"/>
    <node id="1065139714" x="6270.00" y="8722.92" type="priority"/>
    <node id="1065139721" x="6460.93" y="8484.24" type="priority"/>
    <node id="1065139735" x="6998.50" y="8439.07" type="priority"/>
    <node id="1065139736" x="6539.05" y="8506.17" type="priority"/>
    <node id="1065139749" x="6355.66" y="9171.47" type="priority"/>
    <node id="1065139758" x="6359.25" y="8705.89" type="priority"/>
    <node id="1065139759" x="6492.53" y="8441.98" type="priority"/>
    <node id="1065139769" x="6305.31" y="9172.54" type="priority"/>
    <node id="1066729550" x="7437.32" y="10775.44" type="priority"/>
    <node id="1066729576" x="7663.24" y="10880.79" type="priority"/>
    <node id="1066729580" x="7594.70" y="10975.80" type="priority"/>
    <node id="1066729645" x="7747.19" y="10941.88" type="priority"/>
    <node id="1066729742" x="7246.33" y="10904.38" type="priority"/>
    <node id="1066729766" x="7371.50" y="10928.57" type="priority"/>
    <node id="1066729775" x="7416.71" y="10958.42" type="priority"/>
    <node id="1066729806" x="7524.80" y="11042.36" type="priority"/>
    <node id="1066729874" x="7678.64" y="11037.15" type="priority"/>
    <node id="1066729914" x="7652.66" y="11071.08" type="priority"/>
    <node id="1066729938" x="7419.79" y="10680.30" type="priority"/>
    <node id="1066730051" x="7585.36" y="11110.86" type="priority"/>
    <node id="1066730056" x="7646.82" y="11104.27" type="priority"/>
    <node id="1066742875" x="7849.00" y="10921.67" type="priority"/>
    <node id="1066742878" x="7799.83" y="10928.97" type="traffic_light" tl="GS_1066742878"/>
    <node id="1066742893" x="7787.11" y="10913.53" type="priority"/>
    <node id="1066742913" x="7772.37" y="10864.50" type="traffic_light" tl="GS_1066742913"/>
    <node id="1067831414" x="6512.39" y="9972.41" type="priority"/>
    <node id="1067831416" x="6441.90" y="10027.82" type="priority"/>
    <node id="1067831434" x="6405.53" y="10215.42" type="priority"/>
    <node id="1067831475" x="6487.63" y="10010.25" type="priority"/>
    <node id="1067831554" x="6409.76" y="9920.91" type="priority"/>
    <node id="1067831607" x="6401.90" y="10196.54" type="priority"/>
    <node id="1067831628" x="6315.76" y="9970.44" type="priority"/>
    <node id="1067831634" x="6467.26" y="9994.05" type="priority"/>
    <node id="1067843062" x="6387.08" y="10462.61" type="priority"/>
    <node id="1067843086" x="6367.45" y="10419.79" type="priority"/>
    <node id="1067843187" x="6245.40" y="10159.13" type="priority"/>
    <node id="1067889507" x="9711.50" y="11422.26" type="priority"/>
    <node id="1067889509" x="9122.04" y="11819.29" type="priority"/>
    <node id="1067889519" x="9441.79" y="11384.69" type="priority"/>
    <node id="1067889521" x="9426.93" y="11659.46" type="priority"/>
    <node id="1067889528" x="9269.96" y="11590.70" type="priority"/>
    <node id="1067889530" x="9159.55" y="11746.98" type="priority"/>
    <node id="1067889532" x="9209.33" y="11883.07" type="priority"/>
    <node id="1067889566" x="9301.90" y="11591.13" type="priority"/>
    <node id="1067889573" x="9166.68" y="11756.41" type="priority"/>
    <node id="1067889587" x="9475.58" y="11409.91" type="priority"/>
    <node id="1067889590" x="9594.61" y="11687.22" type="priority"/>
    <node id="1067889599" x="9234.48" y="11660.90" type="priority"/>
    <node id="1067889603" x="9732.00" y="11454.39" type="priority"/>
    <node id="1067889614" x="9695.13" y="11349.95" type="traffic_light" tl="GS_1067889614"/>
    <node id="1067889629" x="9703.03" y="11371.25" type="priority"/>
    <node id="1067889637" x="9184.86" y="11769.91" type="priority"/>
    <node id="1067889655" x="9525.12" y="11304.68" type="priority"/>
    <node id="1067889659" x="9360.13" y="11774.24" type="priority"/>
    <node id="1067889663" x="9621.59" y="11375.31" type="priority"/>
    <node id="1067889671" x="9478.73" y="11649.69" type="priority"/>
    <node id="1067889676" x="9490.36" y="11709.08" type="priority"/>
    <node id="1067889686" x="9292.17" y="11865.13" type="priority"/>
    <node id="1067889689" x="9656.88" y="11435.00" type="priority"/>
    <node id="1067889698" x="9371.75" y="11477.75" type="priority"/>
    <node id="1067889716" x="9303.97" y="11611.54" type="priority"/>
    <node id="1067889718" x="9375.21" y="11737.15" type="priority"/>
    <node id="1067889726" x="9253.67" y="11675.10" type="priority"/>
    <node id="1067889729" x="9229.50" y="11927.46" type="priority"/>
    <node id="1067889732" x="9251.10" y="11637.51" type="priority"/>
    <node id="1067889735" x="9387.12" y="11778.48" type="priority"/>
    <node id="1067889736" x="9405.68" y="11502.94" type="priority"/>
    <node id="1067889741" x="9483.13" y="11670.06" type="priority"/>
    <node id="1067889744" x="9708.10" y="11435.29" type="priority"/>
    <node id="1067889749" x="9792.27" y="11424.39" type="priority"/>
    <node id="1067889753" x="9146.91" y="11784.26" type="priority"/>
    <node id="1067889759" x="9303.68" y="11892.93" type="priority"/>
    <node id="1067889766" x="9482.56" y="11691.30" type="priority"/>
    <node id="1067889776" x="9736.45" y="11500.20" type="priority"/>
    <node id="1067889778" x="9638.98" y="11430.85" type="priority"/>
    <node id="1067889782" x="9628.89" y="11359.91" type="priority"/>
    <node id="1067889785" x="9744.49" y="11447.56" type="priority"/>
    <node id="1067913581" x="8966.13" y="4305.25" type="priority"/>
    <node id="1067913585" x="9377.23" y="4349.80" type="priority"/>
    <node id="1067913586" x="8581.13" y="4309.73" type="priority"/>
    <node id="1067913614" x="9182.84" y="4576.93" type="priority"/>
    <node id="1067913645" x="9207.57" y="4668.42" type="priority"/>
    <node id="1067913686" x="9156.56" y="4284.18" type="priority"/>
    <node id="1067913727" x="8670.68" y="4249.99" type="priority"/>
    <node id="1067913728" x="8872.39" y="4127.89" type="priority"/>
    <node id="1067913767" x="9192.35" y="4375.07" type="priority"/>
    <node id="1067913813" x="9016.49" y="4433.87" type="priority"/>
    <node id="1067913914" x="9138.13" y="4237.35" type="priority"/>
    <node id="1067913933" x="8911.86" y="4113.13" type="priority"/>
    <node id="1067913968" x="8983.30" y="4349.46" type="priority"/>
    <node id="1067914047" x="9430.04" y="4330.27" type="priority"/>
    <node id="1067937810" x="8484.77" y="4327.88" type="priority"/>
    <node id="1067937982" x="8531.09" y="4328.91" type="priority"/>
    <node id="1067947668" x="8876.32" y="4891.02" type="priority"/>
    <node id="1067947673" x="8972.62" y="4891.22" type="priority"/>
    <node id="1068269130" x="7610.57" y="11037.87" type="priority"/>
    <node id="1068269158" x="7577.11" y="11080.53" type="priority"/>
    <node id="1068326837" x="7663.25" y="11164.43" type="priority"/>
    <node id="1068326841" x="7670.21" y="11099.22" type="priority"/>
    <node id="1068326850" x="7681.05" y="11194.61" type="priority"/>
    <node id="1068326854" x="7604.17" y="11191.74" type="priority"/>
    <node id="1068379424" x="7635.26" y="10981.74" type="priority"/>
    <node id="1068391829" x="7399.81" y="10749.81" type="priority"/>
    <node id="1070236827" x="7437.05" y="10614.65" type="priority"/>
    <node id="1070236892" x="8331.84" y="15104.03" type="priority"/>
    <node id="1070236915" x="8481.40" y="13056.47" type="priority"/>
    <node id="1070236975" x="8312.67" y="15089.36" type="priority"/>
    <node id="1070236979" x="7587.42" y="13930.47" type="priority"/>
    <node id="1070237005" x="8281.95" y="15165.64" type="priority"/>
    <node id="1070237061" x="7419.03" y="10649.22" type="priority"/>
    <node id="1078610628" x="17487.08" y="2120.95" type="priority"/>
    <node id="1078610696" x="17515.12" y="2079.52" type="priority"/>
    <node id="1078610744" x="17505.18" y="2111.78" type="priority"/>
    <node id="1078610865" x="17504.78" y="2115.02" type="priority"/>
    <node id="1078610891" x="17315.79" y="2167.45" type="priority"/>
    <node id="1078610915" x="17488.37" y="2102.35" type="priority"/>
    <node id="1078610929" x="17302.22" y="2154.98" type="priority"/>
    <node id="1078610939" x="17302.74" y="2159.07" type="priority"/>
    <node id="1083721076" x="12139.66" y="6383.79" type="priority"/>
    <node id="108742238#1-AddedOnRampNode" x="10488.49" y="9277.25" type="priority"/>
    <node id="1093874412" x="4706.98" y="8252.76" type="priority"/>
    <node id="1093874437" x="4752.48" y="8252.40" type="priority"/>
    <node id="1104444322" x="3603.47" y="7808.10" type="priority"/>
    <node id="1104465871" x="5679.56" y="7192.69" type="priority"/>
    <node id="1104465877" x="5520.00" y="7239.50" type="priority"/>
    <node id="1104473880" x="5156.59" y="7327.95" type="priority"/>
    <node id="1111319300" x="6648.30" y="10925.46" type="priority"/>
    <node id="1111319323" x="6719.13" y="10664.99" type="priority"/>
    <node id="1111319331" x="6836.91" y="10738.26" type="priority"/>
    <node id="1111319374" x="6814.82" y="10732.71" type="priority"/>
    <node id="1111319484" x="6694.37" y="10925.47" type="priority"/>
    <node id="1111319502" x="6663.44" y="10740.31" type="priority"/>
    <node id="1111454291" x="6873.97" y="10598.51" type="priority"/>
    <node id="1111454405" x="6883.07" y="10675.94" type="priority"/>
    <node id="1111454455" x="6887.83" y="10588.31" type="priority"/>
    <node id="1111454500" x="6954.36" y="10580.67" type="priority"/>
    <node id="1123096698" x="9331.54" y="4920.61" type="priority"/>
    <node id="1123096701" x="9359.28" y="5046.30" type="priority"/>
    <node id="1123096702" x="9390.58" y="4933.14" type="priority"/>