<?xml version="1.0" encoding="UTF-8"?>

<!-- generated on 10/23/16 23:15:01 by SUMO netconvert Version 0.27.1
<?xml version="1.0" encoding="UTF-8"?>

<configuration xmlns:xsi="http://www.w3.org/2001/XMLSchema-instance" xsi:noNamespaceSchemaLocation="http://sumo.dlr.de/xsd/netconvertConfiguration.xsd">

    <input>
        <sumo-net-file value="C:\Users\zs633\Capstone\AUH\osm\island.net.xml"/>
    </input>

    <output>
        <plain-output-prefix value="island"/>
    </output>

    <processing>
        <no-turnarounds value="true"/>
        <offset.disable-normalization value="true"/>
        <lefthand value="false"/>
        <junctions.corner-detail value="0"/>
    </processing>

</configuration>
-->

<tlLogics version="0.27" xmlns:xsi="http://www.w3.org/2001/XMLSchema-instance" xsi:noNamespaceSchemaLocation="http://sumo.dlr.de/xsd/tllogic_file.xsd">
    <tlLogic id="1636604844" type="static" programID="0" offset="0">
        <phase duration="38" state="GGGG"/>
        <phase duration="7" state="yyyy"/>
        <phase duration="38" state="GGGG"/>
        <phase duration="7" state="yyyy"/>
    </tlLogic>
    <tlLogic id="1848176770" type="static" programID="0" offset="0">
        <phase duration="70" state="ggGGG"/>
        <phase duration="7" state="ggyyy"/>
        <phase duration="6" state="GGrrr"/>
        <phase duration="7" state="yyrrr"/>
    </tlLogic>
    <tlLogic id="1880519455" type="static" programID="0" offset="0">
        <phase duration="66" state="GGGggGG"/>
        <phase duration="9" state="yyyggyy"/>
        <phase duration="6" state="rrrGGrr"/>
        <phase duration="9" state="rrryyrr"/>
    </tlLogic>
    <tlLogic id="2345186082" type="static" programID="0" offset="0">
        <phase duration="41" state="GGrrrr"/>
        <phase duration="4" state="yyrrrr"/>
        <phase duration="41" state="rrGGGG"/>
        <phase duration="4" state="rryyyy"/>
    </tlLogic>
    <tlLogic id="2360583310" type="static" programID="0" offset="0">
        <phase duration="23" state="GGGrr"/>
        <phase duration="7" state="yyyrr"/>
        <phase duration="53" state="rrrGG"/>
        <phase duration="7" state="rrryy"/>
    </tlLogic>
    <tlLogic id="2360583310" type="static" programID="1" offset="0">
        <phase duration="23" state="GGGrr"/>
        <phase duration="7" state="yyyrr"/>
        <phase duration="53" state="rrrGG"/>
        <phase duration="7" state="rrryy"/>
    </tlLogic>
    <tlLogic id="261618070" type="static" programID="0" offset="0">
        <phase duration="38" state="GGGrrrrr"/>
        <phase duration="7" state="yyyrrrrr"/>
        <phase duration="38" state="rrrGGGGG"/>
        <phase duration="7" state="rrryyyyy"/>
    </tlLogic>
    <tlLogic id="261618086" type="static" programID="0" offset="0">
        <phase duration="32" state="GGGGGrrrrrggg"/>
        <phase duration="7" state="yyyyyrrrrrggg"/>
        <phase duration="6" state="rrrrrrrrrrGGG"/>
        <phase duration="7" state="rrrrrrrrrryyy"/>
        <phase duration="31" state="rrrrrGGGGGrrr"/>
        <phase duration="7" state="rrrrryyyyyrrr"/>
    </tlLogic>
    <tlLogic id="261663765" type="static" programID="0" offset="0">
        <phase duration="38" state="GGGGGrrr"/>
        <phase duration="7" state="yyyyyrrr"/>
        <phase duration="38" state="rrrrrGGG"/>
        <phase duration="7" state="rrrrryyy"/>
    </tlLogic>
    <tlLogic id="261665697" type="static" programID="0" offset="0">
        <phase duration="40" state="Grrrr"/>
        <phase duration="5" state="yrrrr"/>
        <phase duration="40" state="rGGGG"/>
        <phase duration="5" state="ryyyy"/>
    </tlLogic>
    <tlLogic id="261665698" type="static" programID="0" offset="0">
        <phase duration="38" state="GGGrrr"/>
        <phase duration="7" state="yyyrrr"/>
        <phase duration="38" state="rrrGGG"/>
        <phase duration="7" state="rrryyy"/>
    </tlLogic>
    <tlLogic id="261665704" type="static" programID="0" offset="0">
        <phase duration="38" state="GGGGr"/>
        <phase duration="7" state="yyyyr"/>
        <phase duration="38" state="rrrrG"/>
        <phase duration="7" state="rrrry"/>
    </tlLogic>
    <tlLogic id="292185814" type="static" programID="0" offset="0">
        <phase duration="36" state="GGrr"/>
        <phase duration="9" state="yyrr"/>
        <phase duration="36" state="rrGG"/>
        <phase duration="9" state="rryy"/>
    </tlLogic>
    <tlLogic id="3246729001" type="static" programID="0" offset="0">
        <phase duration="38" state="GGGGrrrrrGG"/>
        <phase duration="7" state="yyyyrrrrryy"/>
        <phase duration="38" state="rrrrGGGGGGG"/>
        <phase duration="7" state="rrrryyyyyyy"/>
    </tlLogic>
    <tlLogic id="3397743347" type="static" programID="0" offset="0">
        <phase duration="40" state="GGGGGGrrrrrr"/>
        <phase duration="5" state="yyyyyyrrrrrr"/>
        <phase duration="40" state="rrrrrrGGGGGG"/>
        <phase duration="5" state="rrrrrryyyyyy"/>
    </tlLogic>
    <tlLogic id="4001264891" type="static" programID="0" offset="0">
        <phase duration="36" state="GGGrr"/>
        <phase duration="9" state="yyyrr"/>
        <phase duration="36" state="rrrGG"/>
        <phase duration="9" state="rrryy"/>
    </tlLogic>
    <tlLogic id="4089204170" type="static" programID="0" offset="0">
        <phase duration="53" state="rrGGG"/>
        <phase duration="7" state="rryyy"/>
        <phase duration="23" state="GGrrr"/>
        <phase duration="7" state="yyrrr"/>
    </tlLogic>
    <tlLogic id="4090123719" type="static" programID="0" offset="0">
        <phase duration="53" state="rrGGGG"/>
        <phase duration="7" state="rryyyy"/>
        <phase duration="23" state="GGrrrr"/>
        <phase duration="7" state="yyrrrr"/>
    </tlLogic>
    <tlLogic id="799283720" type="static" programID="0" offset="0">
        <phase duration="36" state="GGGrrrr"/>
        <phase duration="9" state="yyyrrrr"/>
        <phase duration="36" state="rrrGGGG"/>
        <phase duration="9" state="rrryyyy"/>
    </tlLogic>
    <tlLogic id="799283946" type="static" programID="0" offset="0">
        <phase duration="36" state="GGGGrrrr"/>
        <phase duration="9" state="yyyyrrrr"/>
        <phase duration="36" state="rrrrGGGG"/>
        <phase duration="9" state="rrrryyyy"/>
    </tlLogic>
    <tlLogic id="799283999" type="static" programID="0" offset="0">
        <phase duration="85" state="GGGGG"/>
        <phase duration="5" state="yyyyy"/>
    </tlLogic>
    <tlLogic id="916386046" type="static" programID="0" offset="0">
        <phase duration="36" state="GGGrrr"/>
        <phase duration="9" state="yyyrrr"/>
        <phase duration="36" state="rrrGGG"/>
        <phase duration="9" state="rrryyy"/>
    </tlLogic>
    <tlLogic id="GS_1003388266" type="static" programID="0" offset="0">
        <phase duration="38" state="GGG"/>
        <phase duration="7" state="yyy"/>
        <phase duration="38" state="GGG"/>
        <phase duration="7" state="yyy"/>
    </tlLogic>
    <tlLogic id="GS_1003388319" type="static" programID="0" offset="0">
        <phase duration="38" state="GGG"/>
        <phase duration="7" state="yyy"/>
        <phase duration="38" state="GGG"/>
        <phase duration="7" state="yyy"/>
    </tlLogic>
    <tlLogic id="GS_1052165761" type="static" programID="0" offset="0">
        <phase duration="38" state="GGG"/>
        <phase duration="7" state="yyy"/>
        <phase duration="38" state="GGG"/>
        <phase duration="7" state="yyy"/>
    </tlLogic>
    <tlLogic id="GS_1052166069" type="static" programID="0" offset="0">
        <phase duration="36" state="GGGG"/>
        <phase duration="9" state="yyyy"/>
        <phase duration="36" state="GGGG"/>
        <phase duration="9" state="yyyy"/>
    </tlLogic>
    <tlLogic id="GS_1052166282" type="static" programID="0" offset="0">
        <phase duration="36" state="GGGG"/>
        <phase duration="9" state="yyyy"/>
        <phase duration="36" state="GGGG"/>
        <phase duration="9" state="yyyy"/>
    </tlLogic>
    <tlLogic id="GS_1061695272" type="static" programID="0" offset="0">
        <phase duration="38" state="GGG"/>
        <phase duration="7" state="yyy"/>
        <phase duration="38" state="GGG"/>
        <phase duration="7" state="yyy"/>
    </tlLogic>
    <tlLogic id="GS_1061695290" type="static" programID="0" offset="0">
        <phase duration="38" state="GGG"/>
        <phase duration="7" state="yyy"/>
        <phase duration="38" state="GGG"/>
        <phase duration="7" state="yyy"/>
    </tlLogic>
    <tlLogic id="GS_1066742878" type="static" programID="0" offset="0">
        <phase duration="38" state="GGG"/>
        <phase duration="7" state="yyy"/>
        <phase duration="38" state="GGG"/>
        <phase duration="7" state="yyy"/>
    </tlLogic>
    <tlLogic id="GS_1066742913" type="static" programID="0" offset="0">
        <phase duration="38" state="GGG"/>
        <phase duration="7" state="yyy"/>
        <phase duration="38" state="GGG"/>
        <phase duration="7" state="yyy"/>
    </tlLogic>
    <tlLogic id="GS_1067889614" type="static" programID="0" offset="0">
        <phase duration="38" state="GGG"/>
        <phase duration="7" state="yyy"/>
        <phase duration="38" state="GGG"/>
        <phase duration="7" state="yyy"/>
    </tlLogic>
    <tlLogic id="GS_1163010482" type="static" programID="0" offset="0">
        <phase duration="38" state="GGG"/>
        <phase duration="7" state="yyy"/>
        <phase duration="38" state="GGG"/>
        <phase duration="7" state="yyy"/>
    </tlLogic>
    <tlLogic id="GS_1166168346" type="static" programID="0" offset="0">
        <phase duration="38" state="GGG"/>
        <phase duration="7" state="yyy"/>
        <phase duration="38" state="GGG"/>
        <phase duration="7" state="yyy"/>
    </tlLogic>
    <tlLogic id="GS_1166168462" type="static" programID="0" offset="0">
        <phase duration="38" state="GGG"/>
        <phase duration="7" state="yyy"/>
        <phase duration="38" state="GGG"/>
        <phase duration="7" state="yyy"/>
    </tlLogic>
    <tlLogic id="GS_1166168470" type="static" programID="0" offset="0">
        <phase duration="38" state="GGG"/>
        <phase duration="7" state="yyy"/>
        <phase duration="38" state="GGG"/>
        <phase duration="7" state="yyy"/>
    </tlLogic>
    <tlLogic id="GS_1166168480" type="static" programID="0" offset="0">
        <phase duration="38" state="GGGG"/>
        <phase duration="7" state="yyyy"/>
        <phase duration="38" state="GGGG"/>
        <phase duration="7" state="yyyy"/>
    </tlLogic>
    <tlLogic id="GS_1320235679" type="static" programID="0" offset="0">
        <phase duration="36" state="GGG"/>
        <phase duration="9" state="yyy"/>
        <phase duration="36" state="GGG"/>
        <phase duration="9" state="yyy"/>
    </tlLogic>
    <tlLogic id="GS_1320235695" type="static" programID="0" offset="0">
        <phase duration="38" state="GGG"/>
        <phase duration="7" state="yyy"/>
        <phase duration="38" state="GGG"/>
        <phase duration="7" state="yyy"/>
    </tlLogic>
    <tlLogic id="GS_1320235955" type="static" programID="0" offset="0">
        <phase duration="36" state="GGG"/>
        <phase duration="9" state="yyy"/>
        <phase duration="36" state="GGG"/>
        <phase duration="9" state="yyy"/>
    </tlLogic>
    <tlLogic id="GS_1320236316" type="static" programID="0" offset="0">
        <phase duration="38" state="GGGG"/>
        <phase duration="7" state="yyyy"/>
        <phase duration="38" state="GGGG"/>
        <phase duration="7" state="yyyy"/>
    </tlLogic>
    <tlLogic id="GS_1330374746" type="static" programID="0" offset="0">
        <phase duration="38" state="GG"/>
        <phase duration="7" state="yy"/>
        <phase duration="38" state="GG"/>
        <phase duration="7" state="yy"/>
    </tlLogic>
    <tlLogic id="GS_1392464731" type="static" programID="0" offset="0">
        <phase duration="36" state="GGG"/>
        <phase duration="9" state="yyy"/>
        <phase duration="36" state="GGG"/>
        <phase duration="9" state="yyy"/>
    </tlLogic>
    <tlLogic id="GS_1392464735" type="static" programID="0" offset="0">
        <phase duration="38" state="GGG"/>
        <phase duration="7" state="yyy"/>
        <phase duration="38" state="GGG"/>
        <phase duration="7" state="yyy"/>
    </tlLogic>
    <tlLogic id="GS_1540504473" type="static" programID="0" offset="0">
        <phase duration="76" state="GgGg"/>
        <phase duration="4" state="ygyg"/>
        <phase duration="6" state="rGrG"/>
        <phase duration="4" state="ryry"/>
    </tlLogic>
    <tlLogic id="GS_1655530424" type="static" programID="0" offset="0">
        <phase duration="36" state="GGG"/>
        <phase duration="9" state="yyy"/>
        <phase duration="36" state="GGG"/>
        <phase duration="9" state="yyy"/>
    </tlLogic>
    <tlLogic id="GS_1655530430" type="static" programID="0" offset="0">
        <phase duration="38" state="GGG"/>
        <phase duration="7" state="yyy"/>
        <phase duration="38" state="GGG"/>
        <phase duration="7" state="yyy"/>
    </tlLogic>
    <tlLogic id="GS_1655530447" type="static" programID="0" offset="0">
        <phase duration="38" state="GGG"/>
        <phase duration="7" state="yyy"/>
        <phase duration="38" state="GGG"/>
        <phase duration="7" state="yyy"/>
    </tlLogic>
    <tlLogic id="GS_1655530451" type="static" programID="0" offset="0">
        <phase duration="36" state="GGG"/>
        <phase duration="9" state="yyy"/>
        <phase duration="36" state="GGG"/>
        <phase duration="9" state="yyy"/>
    </tlLogic>
    <tlLogic id="GS_1716342317" type="static" programID="0" offset="0">
        <phase duration="38" state="Gr"/>
        <phase duration="7" state="yr"/>
        <phase duration="38" state="rG"/>
        <phase duration="7" state="ry"/>
    </tlLogic>
    <tlLogic id="GS_1823291283" type="static" programID="0" offset="0">
        <phase duration="35" state="rrrGGgGgg"/>
        <phase duration="5" state="rrryygygg"/>
        <phase duration="6" state="rrrrrGrGG"/>
        <phase duration="5" state="rrrrryryy"/>
        <phase duration="34" state="GGgGrrrrr"/>
        <phase duration="5" state="yyyyrrrrr"/>
    </tlLogic>
    <tlLogic id="GS_1848144284" type="static" programID="0" offset="0">
        <phase duration="36" state="GGG"/>
        <phase duration="9" state="yyy"/>
        <phase duration="36" state="GGG"/>
        <phase duration="9" state="yyy"/>
    </tlLogic>
    <tlLogic id="GS_1848144296" type="static" programID="0" offset="0">
        <phase duration="38" state="GGG"/>
        <phase duration="7" state="yyy"/>
        <phase duration="38" state="GGG"/>
        <phase duration="7" state="yyy"/>
    </tlLogic>
    <tlLogic id="GS_1875944290" type="static" programID="0" offset="0">
        <phase duration="38" state="GGG"/>
        <phase duration="7" state="yyy"/>
        <phase duration="38" state="GGG"/>
        <phase duration="7" state="yyy"/>
    </tlLogic>
    <tlLogic id="GS_1875944295" type="static" programID="0" offset="0">
        <phase duration="38" state="GGG"/>
        <phase duration="7" state="yyy"/>
        <phase duration="38" state="GGG"/>
        <phase duration="7" state="yyy"/>
    </tlLogic>
    <tlLogic id="GS_1875944302" type="static" programID="0" offset="0">
        <phase duration="38" state="GGG"/>
        <phase duration="7" state="yyy"/>
        <phase duration="38" state="GGG"/>
        <phase duration="7" state="yyy"/>
    </tlLogic>
    <tlLogic id="GS_1875944305" type="static" programID="0" offset="0">
        <phase duration="38" state="GGG"/>
        <phase duration="7" state="yyy"/>
        <phase duration="38" state="GGG"/>
        <phase duration="7" state="yyy"/>
    </tlLogic>
    <tlLogic id="GS_1878834873" type="static" programID="0" offset="0">
        <phase duration="38" state="GGG"/>
        <phase duration="7" state="yyy"/>
        <phase duration="38" state="GGG"/>
        <phase duration="7" state="yyy"/>
    </tlLogic>
    <tlLogic id="GS_1882098676" type="static" programID="0" offset="0">
        <phase duration="38" state="GGGG"/>
        <phase duration="7" state="yyyy"/>
        <phase duration="38" state="GGGG"/>
        <phase duration="7" state="yyyy"/>
    </tlLogic>
    <tlLogic id="GS_2111285361" type="static" programID="0" offset="0">
        <phase duration="38" state="GG"/>
        <phase duration="7" state="yy"/>
        <phase duration="38" state="GG"/>
        <phase duration="7" state="yy"/>
    </tlLogic>
    <tlLogic id="GS_2111285363" type="static" programID="0" offset="0">
        <phase duration="38" state="GGG"/>
        <phase duration="7" state="yyy"/>
        <phase duration="38" state="GGG"/>
        <phase duration="7" state="yyy"/>
    </tlLogic>
    <tlLogic id="GS_2111285370" type="static" programID="0" offset="0">
        <phase duration="38" state="GG"/>
        <phase duration="7" state="yy"/>
        <phase duration="38" state="GG"/>
        <phase duration="7" state="yy"/>
    </tlLogic>
    <tlLogic id="GS_2111285382" type="static" programID="0" offset="0">
        <phase duration="38" state="GGG"/>
        <phase duration="7" state="yyy"/>
        <phase duration="38" state="GGG"/>
        <phase duration="7" state="yyy"/>
    </tlLogic>
    <tlLogic id="GS_2325763446" type="static" programID="0" offset="0">
        <phase duration="38" state="GGG"/>
        <phase duration="7" state="yyy"/>
        <phase duration="38" state="GGG"/>
        <phase duration="7" state="yyy"/>
    </tlLogic>
    <tlLogic id="GS_2325763558" type="static" programID="0" offset="0">
        <phase duration="38" state="GGG"/>
        <phase duration="7" state="yyy"/>
        <phase duration="38" state="GGG"/>
        <phase duration="7" state="yyy"/>
    </tlLogic>
    <tlLogic id="GS_2345202273" type="static" programID="0" offset="0">
        <phase duration="41" state="Gr"/>
        <phase duration="4" state="yr"/>
        <phase duration="41" state="rG"/>
        <phase duration="4" state="ry"/>
    </tlLogic>
    <tlLogic id="GS_261663225" type="static" programID="0" offset="0">
        <phase duration="40" state="GgGrrr"/>
        <phase duration="5" state="yyyrrr"/>
        <phase duration="40" state="rrGGGG"/>
        <phase duration="5" state="rryyyy"/>
    </tlLogic>
    <tlLogic id="GS_261668705" type="static" programID="0" offset="0">
        <phase duration="38" state="GGG"/>
        <phase duration="7" state="yyy"/>
        <phase duration="38" state="GGG"/>
        <phase duration="7" state="yyy"/>
    </tlLogic>
    <tlLogic id="GS_261673031" type="static" programID="0" offset="0">
        <phase duration="40" state="GGrr"/>
        <phase duration="5" state="yyrr"/>
        <phase duration="40" state="rrGG"/>
        <phase duration="5" state="rryy"/>
    </tlLogic>
    <tlLogic id="GS_261673689" type="static" programID="0" offset="0">
        <phase duration="40" state="Grr"/>
        <phase duration="5" state="yrr"/>
        <phase duration="40" state="rGG"/>
        <phase duration="5" state="ryy"/>
    </tlLogic>
    <tlLogic id="GS_262111016" type="static" programID="0" offset="0">
        <phase duration="38" state="GGG"/>
        <phase duration="7" state="yyy"/>
        <phase duration="38" state="GGG"/>
        <phase duration="7" state="yyy"/>
    </tlLogic>
    <tlLogic id="GS_262632351" type="static" programID="0" offset="0">
        <phase duration="38" state="Gr"/>
        <phase duration="7" state="yr"/>
        <phase duration="38" state="rG"/>
        <phase duration="7" state="ry"/>
    </tlLogic>
    <tlLogic id="GS_263008668" type="static" programID="0" offset="0">
        <phase duration="38" state="GgGr"/>
        <phase duration="7" state="yyyr"/>
        <phase duration="38" state="rrGG"/>
        <phase duration="7" state="rryy"/>
    </tlLogic>
    <tlLogic id="GS_263016061" type="static" programID="0" offset="0">
        <phase duration="36" state="GGGG"/>
        <phase duration="9" state="yyyy"/>
        <phase duration="36" state="GGGG"/>
        <phase duration="9" state="yyyy"/>
    </tlLogic>
    <tlLogic id="GS_263016064" type="static" programID="0" offset="0">
        <phase duration="36" state="GGGG"/>
        <phase duration="9" state="yyyy"/>
        <phase duration="36" state="GGGG"/>
        <phase duration="9" state="yyyy"/>
    </tlLogic>
    <tlLogic id="GS_263016113" type="static" programID="0" offset="0">
        <phase duration="38" state="GGG"/>
        <phase duration="7" state="yyy"/>
        <phase duration="38" state="GGG"/>
        <phase duration="7" state="yyy"/>
    </tlLogic>
    <tlLogic id="GS_263016116" type="static" programID="0" offset="0">
        <phase duration="36" state="GGG"/>
        <phase duration="9" state="yyy"/>
        <phase duration="36" state="GGG"/>
        <phase duration="9" state="yyy"/>
    </tlLogic>
    <tlLogic id="GS_263017703" type="static" programID="0" offset="0">
        <phase duration="36" state="GGGG"/>
        <phase duration="9" state="yyyy"/>
        <phase duration="36" state="GGGG"/>
        <phase duration="9" state="yyyy"/>
    </tlLogic>
    <tlLogic id="GS_263017713" type="static" programID="0" offset="0">
        <phase duration="36" state="GGGG"/>
        <phase duration="9" state="yyyy"/>
        <phase duration="36" state="GGGG"/>
        <phase duration="9" state="yyyy"/>
    </tlLogic>
    <tlLogic id="GS_263017723" type="static" programID="0" offset="0">
        <phase duration="36" state="GGG"/>
        <phase duration="9" state="yyy"/>
        <phase duration="36" state="GGG"/>
        <phase duration="9" state="yyy"/>
    </tlLogic>
    <tlLogic id="GS_263017731" type="static" programID="0" offset="0">
        <phase duration="38" state="GGG"/>
        <phase duration="7" state="yyy"/>
        <phase duration="38" state="GGG"/>
        <phase duration="7" state="yyy"/>
    </tlLogic>
    <tlLogic id="GS_2712122650" type="static" programID="0" offset="0">
        <phase duration="36" state="GGG"/>
        <phase duration="9" state="yyy"/>
        <phase duration="36" state="GGG"/>
        <phase duration="9" state="yyy"/>
    </tlLogic>
    <tlLogic id="GS_2712122652" type="static" programID="0" offset="0">
        <phase duration="38" state="GGG"/>
        <phase duration="7" state="yyy"/>
        <phase duration="38" state="GGG"/>
        <phase duration="7" state="yyy"/>
    </tlLogic>
    <tlLogic id="GS_2712122662" type="static" programID="0" offset="0">
        <phase duration="36" state="GGG"/>
        <phase duration="9" state="yyy"/>
        <phase duration="36" state="GGG"/>
        <phase duration="9" state="yyy"/>
    </tlLogic>
    <tlLogic id="GS_2712122668" type="static" programID="0" offset="0">
        <phase duration="38" state="GGG"/>
        <phase duration="7" state="yyy"/>
        <phase duration="38" state="GGG"/>
        <phase duration="7" state="yyy"/>
    </tlLogic>
    <tlLogic id="GS_2876214699" type="static" programID="0" offset="0">
        <phase duration="38" state="GGG"/>
        <phase duration="7" state="yyy"/>
        <phase duration="38" state="GGG"/>
        <phase duration="7" state="yyy"/>
    </tlLogic>
    <tlLogic id="GS_2876230707" type="static" programID="0" offset="0">
        <phase duration="38" state="GGG"/>
        <phase duration="7" state="yyy"/>
        <phase duration="38" state="GGG"/>
        <phase duration="7" state="yyy"/>
    </tlLogic>
    <tlLogic id="GS_2876230713" type="static" programID="0" offset="0">
        <phase duration="38" state="GGG"/>
        <phase duration="7" state="yyy"/>
        <phase duration="38" state="GGG"/>
        <phase duration="7" state="yyy"/>
    </tlLogic>
    <tlLogic id="GS_2876231529" type="static" programID="0" offset="0">
        <phase duration="38" state="GGG"/>
        <phase duration="7" state="yyy"/>
        <phase duration="38" state="GGG"/>
        <phase duration="7" state="yyy"/>
    </tlLogic>
    <tlLogic id="GS_299386499" type="static" programID="0" offset="0">
        <phase duration="40" state="GGGrr"/>
        <phase duration="5" state="yyyrr"/>
        <phase duration="40" state="GrrGg"/>
        <phase duration="5" state="yrryy"/>
    </tlLogic>
    <tlLogic id="GS_3010747660" type="static" programID="0" offset="0">
        <phase duration="40" state="GGGrr"/>
        <phase duration="5" state="yyyrr"/>
        <phase duration="40" state="rrrGG"/>
        <phase duration="5" state="rrryy"/>
    </tlLogic>
    <tlLogic id="GS_3089137485" type="static" programID="0" offset="0">
        <phase duration="36" state="Grr"/>
        <phase duration="9" state="yrr"/>
        <phase duration="36" state="rGG"/>
        <phase duration="9" state="ryy"/>
    </tlLogic>
    <tlLogic id="GS_3976263545" type="static" programID="0" offset="0">
        <phase duration="38" state="GGG"/>
        <phase duration="7" state="yyy"/>
        <phase duration="38" state="GGG"/>
        <phase duration="7" state="yyy"/>
    </tlLogic>
    <tlLogic id="GS_3976263547" type="static" programID="0" offset="0">
        <phase duration="38" state="GGG"/>
        <phase duration="7" state="yyy"/>
        <phase duration="38" state="GGG"/>
        <phase duration="7" state="yyy"/>
    </tlLogic>
    <tlLogic id="GS_3987551564" type="static" programID="0" offset="0">
        <phase duration="36" state="GGrrr"/>
        <phase duration="9" state="yyrrr"/>
        <phase duration="36" state="rrGGG"/>
        <phase duration="9" state="rryyy"/>
    </tlLogic>
    <tlLogic id="GS_4081514406" type="static" programID="0" offset="0">
        <phase duration="38" state="GGG"/>
        <phase duration="7" state="yyy"/>
        <phase duration="38" state="GGG"/>
        <phase duration="7" state="yyy"/>
    </tlLogic>
    <tlLogic id="GS_4081514408" type="static" programID="0" offset="0">
        <phase duration="36" state="GGG"/>
        <phase duration="9" state="yyy"/>
        <phase duration="36" state="GGG"/>
        <phase duration="9" state="yyy"/>
    </tlLogic>
    <tlLogic id="GS_799283737" type="static" programID="0" offset="0">
        <phase duration="38" state="GGGG"/>
        <phase duration="7" state="yyyy"/>
        <phase duration="38" state="GGGG"/>
        <phase duration="7" state="yyyy"/>
    </tlLogic>
    <tlLogic id="GS_799284060" type="static" programID="0" offset="0">
        <phase duration="38" state="GGG"/>
        <phase duration="7" state="yyy"/>
        <phase duration="38" state="GGG"/>
        <phase duration="7" state="yyy"/>
    </tlLogic>
    <tlLogic id="GS_838326916" type="static" programID="0" offset="0">
        <phase duration="38" state="GGGG"/>
        <phase duration="7" state="yyyy"/>
        <phase duration="38" state="GGGG"/>
        <phase duration="7" state="yyyy"/>
    </tlLogic>
    <tlLogic id="GS_cluster_1068313828_1068313837_4090161660_916385867" type="static" programID="0" offset="0">
        <phase duration="35" state="GGggrrrrGGGGg"/>
        <phase duration="5" state="yyggrrrryyyyg"/>
        <phase duration="6" state="rrGGrrrrrrrrG"/>
        <phase duration="5" state="rryyrrrrrrrry"/>
        <phase duration="34" state="rrrrGGGgGrrrr"/>
        <phase duration="5" state="rrrryyyyyrrrr"/>
    </tlLogic>
    <tlLogic id="GS_cluster_1877163957_289361155_3979022563_3979022564" type="static" programID="0" offset="0">
        <phase duration="29" state="GGGggrrrrrGGGggrrrrr"/>
        <phase duration="5" state="yyyggrrrrryyyggrrrrr"/>
        <phase duration="6" state="rrrGGrrrrrrrrGGrrrrr"/>
        <phase duration="5" state="rrryyrrrrrrrryyrrrrr"/>
        <phase duration="29" state="rrrrrGGGggrrrrrGGGgg"/>
        <phase duration="5" state="rrrrryyyggrrrrryyygg"/>
        <phase duration="6" state="rrrrrrrrGGrrrrrrrrGG"/>
        <phase duration="5" state="rrrrrrrryyrrrrrrrryy"/>
    </tlLogic>
    <tlLogic id="GS_cluster_292185815_292185816_694351668_694351669" type="static" programID="0" offset="0">
        <phase duration="29" state="rrrrrGGGggrrrrrGGGgg"/>
        <phase duration="5" state="rrrrryyyggrrrrryyygg"/>
        <phase duration="6" state="rrrrrrrrGGrrrrrrrrGG"/>
        <phase duration="5" state="rrrrrrrryyrrrrrrrryy"/>
        <phase duration="29" state="GGGggrrrrrGGGggrrrrr"/>
        <phase duration="5" state="yyyggrrrrryyyggrrrrr"/>
        <phase duration="6" state="rrrGGrrrrrrrrGGrrrrr"/>
        <phase duration="5" state="rrryyrrrrrrrryyrrrrr"/>
    </tlLogic>
    <tlLogic id="cluster_1052166261_261671786_261671787_261671860_261671861" type="static" programID="0" offset="0">
        <phase duration="29" state="GGGGggrrrrrrGGGgggrrrrrr"/>
        <phase duration="5" state="yyyyggrrrrrryyygggrrrrrr"/>
        <phase duration="6" state="rrrrGGrrrrrrrrrGGGrrrrrr"/>
        <phase duration="5" state="rrrryyrrrrrrrrryyyrrrrrr"/>
        <phase duration="29" state="rrrrrrGGGGggrrrrrrGGGggg"/>
        <phase duration="5" state="rrrrrryyyyggrrrrrryyyggg"/>
        <phase duration="6" state="rrrrrrrrrrGGrrrrrrrrrGGG"/>
        <phase duration="5" state="rrrrrrrrrryyrrrrrrrrryyy"/>
    </tlLogic>