<?xml version="1.0" encoding="UTF-8"?>

<!-- generated on 10/23/16 23:15:00 by SUMO netconvert Version 0.27.1
<?xml version="1.0" encoding="UTF-8"?>

<configuration xmlns:xsi="http://www.w3.org/2001/XMLSchema-instance" xsi:noNamespaceSchemaLocation="http://sumo.dlr.de/xsd/netconvertConfiguration.xsd">

    <input>
        <sumo-net-file value="C:\Users\zs633\Capstone\AUH\osm\island.net.xml"/>
    </input>

    <output>
        <plain-output-prefix value="island"/>
    </output>

    <processing>
        <no-turnarounds value="true"/>
        <offset.disable-normalization value="true"/>
        <lefthand value="false"/>
        <junctions.corner-detail value="0"/>
    </processing>

</configuration>
-->

<edges version="0.27" xmlns:xsi="http://www.w3.org/2001/XMLSchema-instance" xsi:noNamespaceSchemaLocation="http://sumo.dlr.de/xsd/edges_file.xsd">
    <edge id="-100947955#2" from="1166168405" to="cluster_1166168391_1166168522" priority="5" type="highway.unclassified" numLanes="1" speed="13.89" shape="11205.54,6917.73 11028.74,6769.51 11016.33,6759.11 10991.56,6738.33" disallow="tram rail_urban rail rail_electric ship"/>
    <edge id="-100956297#0" from="1166248765" to="1166248729" priority="5" type="highway.unclassified" numLanes="1" speed="11.11" disallow="tram rail_urban rail rail_electric ship"/>
    <edge id="-100956297#1" from="1497205634" to="1166248765" priority="5" type="highway.unclassified" numLanes="1" speed="11.11" shape="10007.96,9158.47 9911.00,9278.75 9909.48,9283.81 9909.63,9288.57 9910.63,9292.99 9913.23,9297.60 9973.03,9347.73" disallow="tram rail_urban rail rail_electric ship"/>
    <edge id="-100956297#2" from="1166248739" to="1497205634" priority="5" type="highway.unclassified" numLanes="1" speed="11.11" shape="10216.48,9060.33 10156.59,9007.84 10142.98,9004.89 10131.51,9012.17 10007.96,9158.47" disallow="tram rail_urban rail rail_electric ship"/>
    <edge id="-100956297#3" from="1166248728" to="1166248739" priority="5" type="highway.unclassified" numLanes="1" speed="11.11" disallow="tram rail_urban rail rail_electric ship"/>
    <edge id="-100956298#0" from="1497205627" to="1166248756" priority="5" type="highway.unclassified" numLanes="1" speed="11.11" shape="9938.63,9099.27 9832.64,9221.84 9822.52,9233.75 9817.18,9243.30 9814.92,9249.95 9814.48,9256.43 9814.23,9271.60 9821.87,9332.47 9825.90,9342.26 9829.28,9348.42 10012.86,9502.41" disallow="tram rail_urban rail rail_electric ship"/>
    <edge id="-100956298#1" from="1166248753" to="1497205627" priority="5" type="highway.unclassified" numLanes="1" speed="11.11" shape="10359.38,9066.50 10181.47,8922.91 10162.38,8920.29 10095.53,8924.53 10072.04,8934.72 9938.63,9099.27" disallow="tram rail_urban rail rail_electric ship"/>
    <edge id="-100956300#0" from="1166248735" to="1166248721" priority="5" type="highway.unclassified" numLanes="1" speed="13.89" shape="10165.88,9521.32 10199.16,9541.61 10203.74,9550.86 10205.63,9559.56 10205.25,9568.75 10202.31,9575.63 10199.34,9581.80 10116.94,9690.08" disallow="tram rail_urban rail rail_electric ship"/>
    <edge id="-100956300#1" from="1166248745" to="1166248735" priority="5" type="highway.unclassified" numLanes="1" speed="13.89" disallow="tram rail_urban rail rail_electric ship"/>
    <edge id="-100956300#2" from="1166248756" to="1166248745" priority="5" type="highway.unclassified" numLanes="1" speed="13.89" shape="10012.86,9502.41 10045.37,9465.82 10049.09,9463.22 10054.15,9462.76 10063.12,9466.75 10075.89,9473.99" disallow="tram rail_urban rail rail_electric ship"/>
    <edge id="-100956300#3" from="cluster_1166248778_1845037559" to="1166248756" priority="5" type="highway.unclassified" numLanes="1" speed="13.89" shape="9953.78,9574.29 10012.86,9502.41" disallow="tram rail_urban rail rail_electric ship"/>
    <edge id="-100956302#1" from="1166248765" to="1166248739" priority="5" type="highway.unclassified" numLanes="1" speed="13.89" shape="9973.03,9347.73 10038.64,9272.22 10216.48,9060.33" disallow="tram rail_urban rail rail_electric ship"/>
    <edge id="-100956303#0" from="1166248753" to="1166248723" priority="4" type="highway.residential" numLanes="1" speed="13.89" disallow="tram rail_urban rail rail_electric ship"/>
    <edge id="-100956303#1" from="1166248728" to="1166248753" priority="4" type="highway.residential" numLanes="1" speed="13.89" disallow="tram rail_urban rail rail_electric ship"/>
    <edge id="-100956303#2" from="1166248729" to="1166248728" priority="4" type="highway.residential" numLanes="1" speed="13.89" shape="10091.04,9445.10 10153.85,9340.22 10263.48,9168.14 10296.33,9130.31" disallow="tram rail_urban rail rail_electric ship"/>
    <edge id="-100956303#3" from="1166248745" to="1166248729" priority="4" type="highway.residential" numLanes="1" speed="13.89" disallow="tram rail_urban rail rail_electric ship"/>
    <edge id="-100956304#0" from="1166248723" to="1166248735" priority="5" type="highway.unclassified" numLanes="1" speed="13.89" shape="10431.14,9003.69 10468.72,9034.10 10473.58,9040.05 10474.89,9047.10 10473.66,9056.78 10468.84,9064.88 10378.75,9173.28 10353.56,9206.73 10330.54,9240.77 10277.46,9326.98 10215.96,9432.33 10165.88,9521.32" disallow="tram rail_urban rail rail_electric ship"/>
    <edge id="-100956304#1" from="1807153871" to="1166248723" priority="5" type="highway.unclassified" numLanes="1" speed="13.89" disallow="tram rail_urban rail rail_electric ship"/>
    <edge id="-100956304#2" from="2147468641" to="1807153871" priority="5" type="highway.unclassified" numLanes="1" speed="13.89" shape="10211.62,8816.96 10219.67,8823.58 10363.46,8947.39" disallow="tram rail_urban rail rail_electric ship"/>
    <edge id="-100956304#4" from="1807153846" to="2147468641" priority="5" type="highway.unclassified" numLanes="1" speed="13.89" shape="10116.30,8738.60 10152.67,8768.50 10211.62,8816.96" disallow="tram rail_urban rail rail_electric ship"/>
    <edge id="-100956304#6" from="1807153826" to="1807153846" priority="5" type="highway.unclassified" numLanes="1" speed="13.89" shape="10037.28,8671.59 10069.58,8698.98 10116.30,8738.60" disallow="tram rail_urban rail rail_electric ship"/>
    <edge id="-100956304#7" from="299386872" to="1807153826" priority="5" type="highway.unclassified" numLanes="1" speed="13.89" shape="9990.11,8631.64 10017.41,8654.73 10037.28,8671.59" disallow="tram rail_urban rail rail_electric ship"/>
    <edge id="-100971955" from="1166364565" to="1166364617" priority="4" type="highway.residential" numLanes="1" speed="13.89" disallow="tram rail_urban rail rail_electric ship"/>
    <edge id="-100971977" from="1166364631" to="1166364598" priority="4" type="highway.residential" numLanes="1" speed="13.89" disallow="tram rail_urban rail rail_electric ship"/>
    <edge id="-100971979#0" from="1166364735" to="1166364435" priority="4" type="highway.residential" numLanes="1" speed="13.89" disallow="tram rail_urban rail rail_electric ship"/>
    <edge id="-100971979#1" from="1166364617" to="1166364735" priority="4" type="highway.residential" numLanes="1" speed="13.89" disallow="tram rail_urban rail rail_electric ship"/>
    <edge id="-100971989#0" from="1166364631" to="1166364566" priority="4" type="highway.residential" numLanes="1" speed="13.89" disallow="tram rail_urban rail rail_electric ship"/>
    <edge id="-100971989#1" from="4065491609" to="1166364631" priority="4" type="highway.residential" numLanes="1" speed="13.89" disallow="tram rail_urban rail rail_electric ship"/>
    <edge id="-108742420" from="1246846323" to="1246846273" priority="4" type="highway.residential" numLanes="1" speed="13.89" disallow="tram rail_urban rail rail_electric ship"/>
    <edge id="-109859931" from="2146139235" to="1256610756" priority="4" type="highway.residential" numLanes="1" speed="13.89" shape="9277.42,7525.03 9245.66,7561.12 9230.83,7549.11 9226.49,7557.01 9224.44,7567.09 9170.44,7633.68" disallow="tram rail_urban rail rail_electric ship"/>
    <edge id="-115311793" from="1303403843" to="1303380167" priority="4" type="highway.residential" numLanes="1" speed="13.89" shape="3233.43,7274.98 3231.71,7270.68 3231.06,7264.96 3226.55,7249.97 3225.23,7243.48" disallow="tram rail_urban rail rail_electric ship"/>
    <edge id="-115315671" from="1303403851" to="1303403843" priority="4" type="highway.residential" numLanes="1" speed="13.89" disallow="tram rail_urban rail rail_electric ship"/>
    <edge id="-117208309" from="1320235874" to="1320235909" priority="4" type="highway.residential" numLanes="1" speed="13.89" disallow="tram rail_urban rail rail_electric ship"/>
    <edge id="-117208318" from="1320235494" to="1320235709" priority="4" type="highway.residential" numLanes="1" speed="13.89" disallow="tram rail_urban rail rail_electric ship"/>
    <edge id="-117208322" from="1320236097" to="1320236440" priority="4" type="highway.residential" numLanes="1" speed="13.89" disallow="tram rail_urban rail rail_electric ship"/>
    <edge id="-117208334" from="1320235987" to="1320236263" priority="4" type="highway.residential" numLanes="1" speed="13.89" disallow="tram rail_urban rail rail_electric ship"/>
    <edge id="-118261378" from="cluster_1330374800_1462158986" to="1330374747" priority="5" type="highway.unclassified" numLanes="1" speed="13.89" shape="10019.30,8112.66 9990.48,8081.73" disallow="tram rail_urban rail rail_electric ship"/>
    <edge id="-118261380#0" from="1330374775" to="1330374776" priority="5" type="highway.unclassified" numLanes="1" speed="13.89" disallow="tram rail_urban rail rail_electric ship"/>
    <edge id="-118261380#2" from="1330374803" to="1330374775" priority="5" type="highway.unclassified" numLanes="1" speed="13.89" shape="10207.87,7773.72 10205.83,7776.28 10125.45,7877.09 10149.75,7897.53" disallow="tram rail_urban rail rail_electric ship"/>
    <edge id="-118261380#3" from="1330374810" to="1330374803" priority="5" type="highway.unclassified" numLanes="1" speed="13.89" disallow="tram rail_urban rail rail_electric ship"/>
    <edge id="-118261385#0" from="1330374781" to="806269644" priority="5" type="highway.unclassified" numLanes="1" speed="13.89" shape="9955.31,8050.83 9937.87,8076.05 9872.78,8156.87 9797.85,8294.00 9790.41,8308.63 9788.84,8316.63 9791.88,8325.96 9809.90,8340.97 9822.68,8349.62" disallow="tram rail_urban rail rail_electric ship"/>
    <edge id="-118261385#1" from="1330374753" to="1330374781" priority="5" type="highway.unclassified" numLanes="1" speed="13.89" disallow="tram rail_urban rail rail_electric ship"/>
    <edge id="-118261385#2" from="1330374803" to="1330374753" priority="5" type="highway.unclassified" numLanes="1" speed="13.89" shape="10207.87,7773.72 10188.72,7759.29 10183.19,7754.27 10177.17,7753.53 10170.64,7755.65 10161.13,7767.49 10122.86,7815.43 10015.39,7940.33 9963.65,8033.57" disallow="tram rail_urban rail rail_electric ship"/>
    <edge id="-118261910#0" from="261836310" to="1330377553" priority="4" type="highway.residential" numLanes="1" speed="13.89" disallow="tram rail_urban rail rail_electric ship"/>
    <edge id="-118261910#1" from="1339400204" to="261836310" priority="4" type="highway.residential" numLanes="1" speed="13.89" shape="9840.64,6185.77 9843.17,6182.50 9873.28,6146.21" disallow="tram rail_urban rail rail_electric ship"/>
    <edge id="-118261910#2" from="938515136" to="1339400204" priority="4" type="highway.residential" numLanes="1" speed="13.89" shape="9878.79,6217.51 9858.52,6241.95 9832.55,6273.25 9794.90,6242.07 9821.50,6210.52 9840.64,6185.77" disallow="tram rail_urban rail rail_electric ship"/>
    <edge id="-118261910#3" from="2146138028" to="938515136" priority="4" type="highway.residential" numLanes="1" speed="13.89" disallow="tram rail_urban rail rail_electric ship"/>
    <edge id="-118261910#4" from="1339400202" to="2146138028" priority="4" type="highway.residential" numLanes="1" speed="13.89" disallow="tram rail_urban rail rail_electric ship"/>
    <edge id="-118261910#5" from="937740933" to="1339400202" priority="4" type="highway.residential" numLanes="1" speed="13.89" shape="9937.86,6067.05 9962.30,6037.71 10001.64,6069.48 9977.15,6098.98" disallow="tram rail_urban rail rail_electric ship"/>
    <edge id="-118261910#6" from="2146138025" to="937740933" priority="4" type="highway.residential" numLanes="1" speed="13.89" disallow="tram rail_urban rail rail_electric ship"/>
    <edge id="-118261910#7" from="261836310" to="2146138025" priority="4" type="highway.residential" numLanes="1" speed="13.89" disallow="tram rail_urban rail rail_electric ship"/>
    <edge id="-118261912" from="261836371" to="261836388" priority="5" type="highway.unclassified" numLanes="1" speed="13.89" disallow="tram rail_urban rail rail_electric ship"/>
    <edge id="-118679933#1" from="2517376273" to="1329910359" priority="6" type="highway.tertiary" numLanes="1" speed="22.22" shape="11268.16,14743.20 11323.02,14672.85 11354.17,14636.60 11376.24,14609.12 11422.29,14540.00 11447.25,14489.73 11455.90,14444.91 11459.52,14407.92 11460.46,14366.69 11454.47,14323.86 11443.35,14282.86 11427.00,14240.23 11396.03,14187.17" disallow="tram rail_urban rail rail_electric ship"/>
    <edge id="-119133883" from="1339413987" to="1339414116" priority="4" type="highway.residential" numLanes="1" speed="13.89" disallow="tram rail_urban rail rail_electric ship"/>
    <edge id="-119133887" from="1339413958" to="1339414080" priority="4" type="highway.residential" numLanes="1" speed="13.89" disallow="tram rail_urban rail rail_electric ship"/>
    <edge id="-119550130#0" from="1342948227" to="1342948248" priority="4" type="highway.residential" numLanes="1" speed="13.89" disallow="tram rail_urban rail rail_electric ship"/>
    <edge id="-119550130#1" from="1342948281" to="1342948227" priority="4" type="highway.residential" numLanes="1" speed="13.89" disallow="tram rail_urban rail rail_electric ship"/>
    <edge id="-119550141" from="1342948280" to="1342948208" priority="4" type="highway.residential" numLanes="1" speed="13.89" disallow="tram rail_urban rail rail_electric ship"/>
    <edge id="-119550148#0" from="1342948227" to="1342948186" priority="4" type="highway.residential" numLanes="1" speed="13.89" disallow="tram rail_urban rail rail_electric ship"/>
    <edge id="-119550148#1" from="1342948250" to="1342948227" priority="4" type="highway.residential" numLanes="1" speed="13.89" disallow="tram rail_urban rail rail_electric ship"/>
    <edge id="-119550148#2" from="1342948149" to="1342948250" priority="4" type="highway.residential" numLanes="1" speed="13.89" disallow="tram rail_urban rail rail_electric ship"/>
    <edge id="-119550148#3" from="1342948208" to="1342948149" priority="4" type="highway.residential" numLanes="1" speed="13.89" disallow="tram rail_urban rail rail_electric ship"/>
    <edge id="-119550148#4" from="1342948285" to="1342948208" priority="4" type="highway.residential" numLanes="1" speed="13.89" disallow="tram rail_urban rail rail_electric ship"/>
    <edge id="-119550151#0" from="1342948248" to="1342948137" priority="4" type="highway.residential" numLanes="1" speed="13.89" disallow="tram rail_urban rail rail_electric ship"/>
    <edge id="-119550151#1" from="1342948285" to="1342948248" priority="4" type="highway.residential" numLanes="1" speed="13.89" disallow="tram rail_urban rail rail_electric ship"/>
    <edge id="-119550151#2" from="1342948179" to="1342948285" priority="4" type="highway.residential" numLanes="1" speed="13.89" disallow="tram rail_urban rail rail_electric ship"/>
    <edge id="-119550154" from="1342948198" to="1342948250" priority="4" type="highway.residential" numLanes="1" speed="13.89" shape="8674.58,7664.93 8643.41,7639.04 8620.43,7666.21" disallow="tram rail_urban rail rail_electric ship"/>
    <edge id="-119550161" from="1342948175" to="1342948149" priority="4" type="highway.residential" numLanes="1" speed="13.89" disallow="tram rail_urban rail rail_electric ship"/>
    <edge id="-120113816#0" from="1347556616" to="1875965480" priority="4" type="highway.residential" numLanes="1" speed="13.89" disallow="tram rail_urban rail rail_electric ship"/>
    <edge id="-120113816#2" from="1347556617" to="1347556616" priority="4" type="highway.residential" numLanes="1" speed="13.89" shape="7949.51,10898.53 7962.57,10880.14 7972.80,10865.67" disallow="tram rail_urban rail rail_electric ship"/>
    <edge id="-120113834#0" from="2675140586" to="1347556634" priority="4" type="highway.residential" numLanes="1" speed="13.89" disallow="tram rail_urban rail rail_electric ship"/>
    <edge id="-120113834#1" from="1347556605" to="2675140586" priority="4" type="highway.residential" numLanes="1" speed="13.89" disallow="tram rail_urban rail rail_electric ship"/>
    <edge id="-120113837" from="1347556605" to="1347556672" priority="5" type="highway.unclassified" numLanes="1" speed="13.89" disallow="tram rail_urban rail rail_electric ship"/>
    <edge id="-120261188" from="261967206" to="1348889682" priority="4" type="highway.residential" numLanes="1" speed="13.89" disallow="tram rail_urban rail rail_electric ship"/>
    <edge id="-120385132" from="1349959870" to="1349959974" priority="4" type="highway.residential" numLanes="1" speed="13.89" disallow="tram rail_urban rail rail_electric ship"/>
    <edge id="-120385142#0" from="1349959878" to="1349959905" priority="4" type="highway.residential" numLanes="1" speed="13.89" disallow="tram rail_urban rail rail_electric ship"/>
    <edge id="-120385142#1" from="1349959961" to="1349959878" priority="4" type="highway.residential" numLanes="1" speed="13.89" disallow="tram rail_urban rail rail_electric ship"/>
    <edge id="-120385146" from="1349959897" to="1349959878" priority="4" type="highway.residential" numLanes="1" speed="13.89" disallow="tram rail_urban rail rail_electric ship"/>
    <edge id="-120385156#0" from="1349959974" to="261830450" priority="4" type="highway.residential" numLanes="1" speed="13.89" disallow="tram rail_urban rail rail_electric ship"/>
    <edge id="-120385156#1" from="261830452" to="1349959974" priority="4" type="highway.residential" numLanes="1" speed="13.89" disallow="tram rail_urban rail rail_electric ship"/>
    <edge id="-120385177" from="1349959944" to="261830281" priority="4" type="highway.residential" numLanes="1" speed="13.89" disallow="tram rail_urban rail rail_electric ship"/>
    <edge id="-121820318" from="1362815352" to="2137519442" priority="4" type="highway.residential" numLanes="1" speed="13.89" disallow="tram rail_urban rail rail_electric ship"/>
    <edge id="-121820322#0" from="1362815352" to="1362815376" priority="4" type="highway.residential" numLanes="1" speed="13.89" disallow="tram rail_urban rail rail_electric ship"/>
    <edge id="-121820322#1" from="1362815353" to="1362815352" priority="4" type="highway.residential" numLanes="1" speed="13.89" disallow="tram rail_urban rail rail_electric ship"/>
    <edge id="-121820328" from="cluster_1362815442_1362815443" to="1362815416" priority="4" type="highway.residential" numLanes="1" speed="13.89" shape="7060.31,10930.99 7049.90,10943.78 7040.99,10954.65 6965.06,10896.17" disallow="tram rail_urban rail rail_electric ship"/>
    <edge id="-123120699" from="1373998404" to="1373998403" priority="4" type="highway.residential" numLanes="1" speed="13.89" disallow="tram rail_urban rail rail_electric ship"/>
    <edge id="-123343996#0" from="1375851533" to="1375851528" priority="4" type="highway.residential" numLanes="1" speed="13.89" disallow="tram rail_urban rail rail_electric ship"/>
    <edge id="-123343996#1" from="2382119086" to="1375851533" priority="4" type="highway.residential" numLanes="1" speed="13.89" disallow="tram rail_urban rail rail_electric ship"/>
    <edge id="-123343996#2" from="cluster_1375851577_263051968" to="2382119086" priority="4" type="highway.residential" numLanes="1" speed="13.89" shape="11678.57,6619.83 11677.42,6608.40 11704.05,6576.24 11732.50,6566.46" disallow="tram rail_urban rail rail_electric ship"/>
    <edge id="-123343997" from="1375851515" to="1375851533" priority="4" type="highway.residential" numLanes="1" speed="13.89" disallow="tram rail_urban rail rail_electric ship"/>
    <edge id="-123343998#0" from="2382119085" to="cluster_1375851577_263051968" priority="4" type="highway.residential" numLanes="1" speed="13.89" shape="11714.41,6547.35 11665.80,6609.21" disallow="tram rail_urban rail rail_electric ship"/>
    <edge id="-123343998#1" from="1375851515" to="2382119085" priority="4" type="highway.residential" numLanes="1" speed="13.89" shape="11822.17,6530.80 11814.16,6517.42 11780.00,6488.72 11764.61,6488.90 11714.41,6547.35" disallow="tram rail_urban rail rail_electric ship"/>
    <edge id="-123343998#2" from="1375851528" to="1375851515" priority="4" type="highway.residential" numLanes="1" speed="13.89" shape="11806.27,6602.97 11841.73,6624.39 11878.27,6570.66 11822.17,6530.80" disallow="tram rail_urban rail rail_electric ship"/>
    <edge id="-123343998#3" from="1375851519" to="1375851528" priority="4" type="highway.residential" numLanes="1" speed="13.89" disallow="tram rail_urban rail rail_electric ship"/>
    <edge id="-123421262" from="1376421350" to="1376421351" priority="4" type="highway.residential" numLanes="1" speed="13.89" shape="11532.72,6290.89 11466.44,6233.09 11462.73,6231.57" disallow="tram rail_urban rail rail_electric ship"/>
    <edge id="-125592721#1" from="1394625410" to="1394625402" priority="4" type="highway.residential" numLanes="1" speed="13.89" shape="5953.49,9424.22 5860.96,9330.62 5828.90,9301.08 5816.52,9294.85" disallow="tram rail_urban rail rail_electric ship"/>
    <edge id="-127732569" from="1413146827" to="1413146833" priority="4" type="highway.residential" numLanes="1" speed="13.89" disallow="tram rail_urban rail rail_electric ship"/>
    <edge id="-127732570#0" from="1413146842" to="1413146835" priority="4" type="highway.residential" numLanes="1" speed="13.89" disallow="tram rail_urban rail rail_electric ship"/>
    <edge id="-127732570#1" from="1413146822" to="1413146842" priority="4" type="highway.residential" numLanes="1" speed="13.89" disallow="tram rail_urban rail rail_electric ship"/>
    <edge id="-127732570#2" from="1413146829" to="1413146822" priority="4" type="highway.residential" numLanes="1" speed="13.89" disallow="tram rail_urban rail rail_electric ship"/>
    <edge id="-127732571" from="1413146819" to="1413146842" priority="4" type="highway.residential" numLanes="1" speed="13.89" shape="12631.08,5272.80 12765.07,5213.93 12785.52,5256.01" disallow="tram rail_urban rail rail_electric ship"/>
    <edge id="-127979767" from="1415262050" to="1415262054" priority="4" type="highway.residential" numLanes="1" speed="13.89" shape="12381.86,5933.19 12423.36,5914.74 12389.54,5829.54 12344.05,5850.51" disallow="tram rail_urban rail rail_electric ship"/>
    <edge id="-127979768" from="cluster_263051639_307595306" to="1415262052" priority="4" type="highway.residential" numLanes="1" speed="13.89" shape="12641.68,5856.57 12423.58,5958.72" disallow="tram rail_urban rail rail_electric ship"/>
    <edge id="-127983894" from="1415298663" to="1415298682" priority="4" type="highway.residential" numLanes="1" speed="13.89" disallow="tram rail_urban rail rail_electric ship"/>
    <edge id="-132907330#0" from="cluster_3989303457_3989303458" to="1462124788" priority="5" type="highway.unclassified" numLanes="1" speed="13.89" shape="15092.12,4396.70 15247.64,4369.49" disallow="tram rail_urban rail rail_electric ship"/>
    <edge id="-132907330#2" from="1802860694" to="cluster_3989303457_3989303458" priority="5" type="highway.unclassified" numLanes="1" speed="13.89" shape="14743.41,4457.75 15089.32,4397.20" disallow="tram rail_urban rail rail_electric ship"/>
    <edge id="-132911788" from="1330374775" to="1330374747" priority="5" type="highway.unclassified" numLanes="1" speed="13.89" shape="10149.75,7897.53 10085.41,7974.43 9990.48,8081.73" disallow="tram rail_urban rail rail_electric ship"/>
    <edge id="-132911789" from="1330374747" to="1330374781" priority="5" type="highway.unclassified" numLanes="1" speed="13.89" disallow="tram rail_urban rail rail_electric ship"/>
    <edge id="-132911879" from="1462158984" to="cluster_1330374800_1462158986" priority="5" type="highway.unclassified" numLanes="1" speed="13.89" shape="10131.97,8220.29 10013.13,8120.09" disallow="tram rail_urban rail rail_electric ship"/>
    <edge id="-132917601#1" from="263009901" to="1462237397" priority="4" type="highway.residential" numLanes="1" speed="13.89" shape="15386.85,5475.35 15425.70,5468.40 15464.46,5461.46" disallow="tram rail_urban rail rail_electric ship"/>
    <edge id="-132917601#10" from="263009918" to="263009919" priority="4" type="highway.residential" numLanes="1" speed="13.89" disallow="tram rail_urban rail rail_electric ship"/>
    <edge id="-132917601#2" from="4023972477" to="263009901" priority="4" type="highway.residential" numLanes="1" speed="13.89" disallow="tram rail_urban rail rail_electric ship"/>
    <edge id="-132917601#3" from="4023972474" to="4023972477" priority="4" type="highway.residential" numLanes="1" speed="13.89" disallow="tram rail_urban rail rail_electric ship"/>
    <edge id="-132917601#4" from="263009888" to="4023972474" priority="4" type="highway.residential" numLanes="1" speed="13.89" disallow="tram rail_urban rail rail_electric ship"/>
    <edge id="-132917601#6" from="263009927" to="263009888" priority="4" type="highway.residential" numLanes="1" speed="13.89" shape="15112.04,5524.57 15147.04,5518.30 15179.10,5512.56" disallow="tram rail_urban rail rail_electric ship"/>
    <edge id="-132917601#7" from="263009895" to="263009927" priority="4" type="highway.residential" numLanes="1" speed="13.89" disallow="tram rail_urban rail rail_electric ship"/>
    <edge id="-132917601#9" from="263009919" to="263009895" priority="4" type="highway.residential" numLanes="1" speed="13.89" shape="14757.92,5587.99 14821.06,5576.68 15013.43,5542.23" disallow="tram rail_urban rail rail_electric ship"/>
    <edge id="-136050627" from="1492984523" to="3976282213" priority="5" type="highway.unclassified" numLanes="1" speed="13.89" shape="15090.86,4255.72 15087.22,4239.16 15082.82,4225.90 15076.76,4214.65 15067.63,4199.66 15058.86,4188.72 15045.95,4175.16 15033.12,4165.79 15017.59,4157.28 15010.88,4155.37 15003.78,4153.89 14995.06,4153.23 14983.23,4153.59 14968.75,4158.33 14954.95,4164.89 14942.43,4177.49 14932.71,4191.22 14926.08,4205.12 14921.04,4219.86 14918.09,4236.94 14916.57,4254.49 14916.19,4266.74 14916.52,4276.75 14918.12,4287.67" disallow="tram rail_urban rail rail_electric ship"/>
    <edge id="-136050628" from="1492984522" to="1492984511" priority="7" type="highway.secondary" numLanes="2" speed="27.78" disallow="tram rail_urban rail rail_electric ship"/>
    <edge id="-136050631#7" from="1826469359" to="1492984522" priority="5" type="highway.unclassified" numLanes="1" speed="13.89" shape="15640.20,3858.76 15584.52,3868.67 15555.56,3873.82 15549.47,3874.90 15486.85,3886.05 15424.04,3897.23 15351.16,3910.20 15309.29,3917.65 15234.68,3930.93" disallow="tram rail_urban rail rail_electric ship"/>
    <edge id="-136050633" from="3976282213" to="1492984548" priority="5" type="highway.unclassified" numLanes="1" speed="13.89" disallow="tram rail_urban rail rail_electric ship"/>
    <edge id="-136390784" from="cluster_1496182097_1496182183" to="1496182104" priority="5" type="highway.unclassified" numLanes="1" speed="13.89" shape="11139.62,14870.17 10983.15,14744.91" disallow="tram rail_urban rail rail_electric ship"/>
    <edge id="-136390797#0" from="1496182059" to="1496182045" priority="5" type="highway.unclassified" numLanes="1" speed="13.89" shape="10698.18,14917.46 10729.48,14878.46 10736.48,14875.08" disallow="tram rail_urban rail rail_electric ship"/>
    <edge id="-136390797#1" from="cluster_1496182055_1496182140_1496182148" to="1496182059" priority="5" type="highway.unclassified" numLanes="1" speed="13.89" shape="10663.17,14961.10 10698.18,14917.46" disallow="tram rail_urban rail rail_electric ship"/>
    <edge id="-136390797#3" from="1496182054" to="cluster_1496182055_1496182140_1496182148" priority="5" type="highway.unclassified" numLanes="1" speed="13.89" shape="10637.80,15042.78 10636.39,15032.72 10633.67,15018.72 10632.24,15008.36 10632.98,14998.87 10652.93,14974.59" disallow="tram rail_urban rail rail_electric ship"/>
    <edge id="-136390810" from="1496182059" to="1496182187" priority="5" type="highway.unclassified" numLanes="1" speed="13.89" disallow="tram rail_urban rail rail_electric ship"/>
    <edge id="-136390813" from="cluster_1496182055_1496182140_1496182148" to="1496182075" priority="5" type="highway.unclassified" numLanes="1" speed="13.89" shape="10665.38,14974.84 10689.79,14994.42 10695.29,14999.16" disallow="tram rail_urban rail rail_electric ship"/>
    <edge id="-136491553#0" from="2147468642" to="1807153846" priority="5" type="highway.unclassified" numLanes="1" speed="13.89" disallow="tram rail_urban rail rail_electric ship"/>
    <edge id="-136491553#1" from="1807153860" to="2147468642" priority="5" type="highway.unclassified" numLanes="1" speed="13.89" disallow="tram rail_urban rail rail_electric ship"/>
    <edge id="-136491553#2" from="1807153878" to="1807153860" priority="5" type="highway.unclassified" numLanes="1" speed="13.89" disallow="tram rail_urban rail rail_electric ship"/>
    <edge id="-136491553#3" from="1807153882" to="1807153878" priority="5" type="highway.unclassified" numLanes="1" speed="13.89" disallow="tram rail_urban rail rail_electric ship"/>
    <edge id="-136491553#4" from="1807153886" to="1807153882" priority="5" type="highway.unclassified" numLanes="1" speed="13.89" disallow="tram rail_urban rail rail_electric ship"/>