<?xml version='1.0' encoding='UTF-8'?>
<edges xmlns:xsi="http://www.w3.org/2001/XMLSchema-instance" version="0.27" xsi:noNamespaceSchemaLocation="http://sumo.dlr.de/xsd/edges_file.xsd">
    <edge disallow="tram rail_urban rail rail_electric ship" dump_speed="10.08" from="node_00x00" id="xedge_00x00" len="100.0" numLanes="1" priority="5" slowdown="3.81" slowdown_ratio="0.274298056156" speed="13.89" to="node_00x01" type="highway.undefined" />
    <edge disallow="tram rail_urban rail rail_electric ship" dump_speed="11.03" from="node_00x01" id="xedge_00x01" len="100.0" numLanes="1" priority="5" slowdown="2.86" slowdown_ratio="0.205903527718" speed="13.89" to="node_00x00" type="highway.undefined" />
    <edge disallow="tram rail_urban rail rail_electric ship" dump_speed="10.31" from="node_00x01" id="xedge_00x02" len="100.0" numLanes="1" priority="5" slowdown="3.58" slowdown_ratio="0.25773938085" speed="13.89" to="node_00x02" type="highway.undefined" />
    <edge disallow="tram rail_urban rail rail_electric ship" dump_speed="10.42" from="node_00x02" id="xedge_00x03" len="100.0" numLanes="1" priority="5" slowdown="3.47" slowdown_ratio="0.249820014399" speed="13.89" to="node_00x01" type="highway.undefined" />
    <edge disallow="tram rail_urban rail rail_electric ship" dump_speed="10.72" from="node_00x02" id="xedge_00x04" len="100.0" numLanes="1" priority="5" slowdown="3.17" slowdown_ratio="0.228221742261" speed="13.89" to="node_00x03" type="highway.undefined" />
    <edge disallow="tram rail_urban rail rail_electric ship" dump_speed="10.54" from="node_00x03" id="xedge_00x05" len="100.0" numLanes="1" priority="5" slowdown="3.35" slowdown_ratio="0.241180705544" speed="13.89" to="node_00x02" type="highway.undefined" />
    <edge disallow="tram rail_urban rail rail_electric ship" dump_speed="10.56" from="node_00x03" id="xedge_00x06" len="100.0" numLanes="1" priority="5" slowdown="3.33" slowdown_ratio="0.239740820734" speed="13.89" to="node_00x04" type="highway.undefined" />
    <edge disallow="tram rail_urban rail rail_electric ship" dump_speed="10.57" from="node_00x04" id="xedge_00x07" len="100.0" numLanes="1" priority="5" slowdown="3.32" slowdown_ratio="0.23902087833" speed="13.89" to="node_00x03" type="highway.undefined" />
    <edge disallow="tram rail_urban rail rail_electric ship" dump_speed="10.26" from="node_00x04" id="xedge_00x08" len="100.0" numLanes="1" priority="5" slowdown="3.63" slowdown_ratio="0.261339092873" speed="13.89" to="node_00x05" type="highway.undefined" />
    <edge disallow="tram rail_urban rail rail_electric ship" dump_speed="10.24" from="node_00x05" id="xedge_00x09" len="100.0" numLanes="1" priority="5" slowdown="3.65" slowdown_ratio="0.262778977682" speed="13.89" to="node_00x04" type="highway.undefined" />
    <edge disallow="tram rail_urban rail rail_electric ship" dump_speed="10.37" from="node_00x05" id="xedge_00x10" len="100.0" numLanes="1" priority="5" slowdown="3.52" slowdown_ratio="0.253419726422" speed="13.89" to="node_00x06" type="highway.undefined" />
    <edge disallow="tram rail_urban rail rail_electric ship" dump_speed="10.28" from="node_00x06" id="xedge_00x11" len="100.0" numLanes="1" priority="5" slowdown="3.61" slowdown_ratio="0.259899208063" speed="13.89" to="node_00x05" type="highway.undefined" />
    <edge disallow="tram rail_urban rail rail_electric ship" dump_speed="10.26" from="node_00x06" id="xedge_00x12" len="100.0" numLanes="1" priority="5" slowdown="3.63" slowdown_ratio="0.261339092873" speed="13.89" to="node_00x07" type="highway.undefined" />
    <edge disallow="tram rail_urban rail rail_electric ship" dump_speed="10.47" from="node_00x07" id="xedge_00x13" len="100.0" numLanes="1" priority="5" slowdown="3.42" slowdown_ratio="0.246220302376" speed="13.89" to="node_00x06" type="highway.undefined" />
    <edge disallow="tram rail_urban rail rail_electric ship" dump_speed="10.42" from="node_00x10" id="xedge_00x20" len="100.0" numLanes="1" priority="5" slowdown="3.47" slowdown_ratio="0.249820014399" speed="13.89" to="node_00x11" type="highway.undefined" />
    <edge disallow="tram rail_urban rail rail_electric ship" dump_speed="10.7" from="node_00x11" id="xedge_00x21" len="100.0" numLanes="1" priority="5" slowdown="3.19" slowdown_ratio="0.22966162707" speed="13.89" to="node_00x10" type="highway.undefined" />
    <edge disallow="tram rail_urban rail rail_electric ship" dump_speed="8.37" from="node_00x12" id="xedge_00x24" len="100.0" numLanes="1" priority="5" slowdown="5.52" slowdown_ratio="0.397408207343" speed="13.89" to="node_00x13" type="highway.undefined" />
    <edge disallow="tram rail_urban rail rail_electric ship" dump_speed="12.54" from="node_00x13" id="xedge_00x25" len="100.0" numLanes="1" priority="5" slowdown="1.35" slowdown_ratio="0.097192224622" speed="13.89" to="node_00x12" type="highway.undefined" />
    <edge disallow="tram rail_urban rail rail_electric ship" dump_speed="10.44" from="node_00x13" id="xedge_00x26" len="100.0" numLanes="1" priority="5" slowdown="3.45" slowdown_ratio="0.24838012959" speed="13.89" to="node_00x14" type="highway.undefined" />
    <edge disallow="tram rail_urban rail rail_electric ship" dump_speed="10.19" from="node_00x14" id="xedge_00x27" len="100.0" numLanes="1" priority="5" slowdown="3.7" slowdown_ratio="0.266378689705" speed="13.89" to="node_00x13" type="highway.undefined" />
    <edge disallow="tram rail_urban rail rail_electric ship" dump_speed="12.48" from="node_00x14" id="xedge_00x28" len="100.0" numLanes="1" priority="5" slowdown="1.41" slowdown_ratio="0.10151187905" speed="13.89" to="node_00x15" type="highway.undefined" />
    <edge disallow="tram rail_urban rail rail_electric ship" dump_speed="8.23" from="node_00x15" id="xedge_00x29" len="100.0" numLanes="1" priority="5" slowdown="5.66" slowdown_ratio="0.407487401008" speed="13.89" to="node_00x14" type="highway.undefined" />
    <edge disallow="tram rail_urban rail rail_electric ship" dump_speed="8.53" from="node_00x16" id="xedge_00x32" len="100.0" numLanes="1" priority="5" slowdown="5.36" slowdown_ratio="0.38588912887" speed="13.89" to="node_00x17" type="highway.undefined" />
    <edge disallow="tram rail_urban rail rail_electric ship" dump_speed="12.78" from="node_00x17" id="xedge_00x33" len="100.0" numLanes="1" priority="5" slowdown="1.11" slowdown_ratio="0.0799136069114" speed="13.89" to="node_00x16" type="highway.undefined" />
    <edge disallow="tram rail_urban rail rail_electric ship" dump_speed="10.4" from="node_00x17" id="xedge_00x34" len="100.0" numLanes="1" priority="5" slowdown="3.49" slowdown_ratio="0.251259899208" speed="13.89" to="node_00x18" type="highway.undefined" />
    <edge disallow="tram rail_urban rail rail_electric ship" dump_speed="10.31" from="node_00x18" id="xedge_00x35" len="100.0" numLanes="1" priority="5" slowdown="3.58" slowdown_ratio="0.25773938085" speed="13.89" to="node_00x17" type="highway.undefined" />
    <edge disallow="tram rail_urban rail rail_electric ship" dump_speed="10.09" from="node_01x03" id="xedge_01x06" len="100.0" numLanes="1" priority="5" slowdown="3.8" slowdown_ratio="0.273578113751" speed="13.89" to="node_01x04" type="highway.undefined" />
    <edge disallow="tram rail_urban rail rail_electric ship" dump_speed="10.94" from="node_01x04" id="xedge_01x07" len="100.0" numLanes="1" priority="5" slowdown="2.95" slowdown_ratio="0.212383009359" speed="13.89" to="node_01x03" type="highway.undefined" />
    <edge disallow="tram rail_urban rail rail_electric ship" dump_speed="10.32" from="node_01x04" id="xedge_01x08" len="100.0" numLanes="1" priority="5" slowdown="3.57" slowdown_ratio="0.257019438445" speed="13.89" to="node_01x05" type="highway.undefined" />
    <edge disallow="tram rail_urban rail rail_electric ship" dump_speed="10.29" from="node_01x05" id="xedge_01x09" len="100.0" numLanes="1" priority="5" slowdown="3.6" slowdown_ratio="0.259179265659" speed="13.89" to="node_01x04" type="highway.undefined" />
    <edge disallow="tram rail_urban rail rail_electric ship" dump_speed="10.41" from="node_01x05" id="xedge_01x10" len="100.0" numLanes="1" priority="5" slowdown="3.48" slowdown_ratio="0.250539956803" speed="13.89" to="node_01x06" type="highway.undefined" />
    <edge disallow="tram rail_urban rail rail_electric ship" dump_speed="10.91" from="node_01x06" id="xedge_01x11" len="100.0" numLanes="1" priority="5" slowdown="2.98" slowdown_ratio="0.214542836573" speed="13.89" to="node_01x05" type="highway.undefined" />
    <edge disallow="tram rail_urban rail rail_electric ship" dump_speed="10.42" from="node_01x06" id="xedge_01x12" len="100.0" numLanes="1" priority="5" slowdown="3.47" slowdown_ratio="0.249820014399" speed="13.89" to="node_01x07" type="highway.undefined" />
    <edge disallow="tram rail_urban rail rail_electric ship" dump_speed="10.88" from="node_01x07" id="xedge_01x13" len="100.0" numLanes="1" priority="5" slowdown="3.01" slowdown_ratio="0.216702663787" speed="13.89" to="node_01x06" type="highway.undefined" />
    <edge disallow="tram rail_urban rail rail_electric ship" dump_speed="10.68" from="node_01x08" id="xedge_01x16" len="100.0" numLanes="1" priority="5" slowdown="3.21" slowdown_ratio="0.231101511879" speed="13.89" to="node_01x09" type="highway.undefined" />
    <edge disallow="tram rail_urban rail rail_electric ship" dump_speed="10.47" from="node_01x09" id="xedge_01x17" len="100.0" numLanes="1" priority="5" slowdown="3.42" slowdown_ratio="0.246220302376" speed="13.89" to="node_01x08" type="highway.undefined" />
    <edge disallow="tram rail_urban rail rail_electric ship" dump_speed="10.6" from="node_01x09" id="xedge_01x18" len="100.0" numLanes="1" priority="5" slowdown="3.29" slowdown_ratio="0.236861051116" speed="13.89" to="node_01x10" type="highway.undefined" />
    <edge disallow="tram rail_urban rail rail_electric ship" dump_speed="10.5" from="node_01x10" id="xedge_01x19" len="100.0" numLanes="1" priority="5" slowdown="3.39" slowdown_ratio="0.244060475162" speed="13.89" to="node_01x09" type="highway.undefined" />
    <edge disallow="tram rail_urban rail rail_electric ship" dump_speed="10.48" from="node_01x10" id="xedge_01x20" len="100.0" numLanes="1" priority="5" slowdown="3.41" slowdown_ratio="0.245500359971" speed="13.89" to="node_01x11" type="highway.undefined" />
    <edge disallow="tram rail_urban rail rail_electric ship" dump_speed="10.91" from="node_01x11" id="xedge_01x21" len="100.0" numLanes="1" priority="5" slowdown="2.98" slowdown_ratio="0.214542836573" speed="13.89" to="node_01x10" type="highway.undefined" />
    <edge disallow="tram rail_urban rail rail_electric ship" dump_speed="10.03" from="node_01x11" id="xedge_01x22" len="100.0" numLanes="1" priority="5" slowdown="3.86" slowdown_ratio="0.277897768179" speed="13.89" to="node_01x12" type="highway.undefined" />
    <edge disallow="tram rail_urban rail rail_electric ship" dump_speed="10.14" from="node_01x12" id="xedge_01x23" len="100.0" numLanes="1" priority="5" slowdown="3.75" slowdown_ratio="0.269978401728" speed="13.89" to="node_01x11" type="highway.undefined" />
    <edge disallow="tram rail_urban rail rail_electric ship" dump_speed="10.26" from="node_01x12" id="xedge_01x24" len="100.0" numLanes="1" priority="5" slowdown="3.63" slowdown_ratio="0.261339092873" speed="13.89" to="node_01x13" type="highway.undefined" />
    <edge disallow="tram rail_urban rail rail_electric ship" dump_speed="10.42" from="node_01x13" id="xedge_01x25" len="100.0" numLanes="1" priority="5" slowdown="3.47" slowdown_ratio="0.249820014399" speed="13.89" to="node_01x12" type="highway.undefined" />
    <edge disallow="tram rail_urban rail rail_electric ship" dump_speed="9.94" from="node_01x14" id="xedge_01x28" len="100.0" numLanes="1" priority="5" slowdown="3.95" slowdown_ratio="0.28437724982" speed="13.89" to="node_01x15" type="highway.undefined" />
    <edge disallow="tram rail_urban rail rail_electric ship" dump_speed="10.72" from="node_01x15" id="xedge_01x29" len="100.0" numLanes="1" priority="5" slowdown="3.17" slowdown_ratio="0.228221742261" speed="13.89" to="node_01x14" type="highway.undefined" />
    <edge disallow="tram rail_urban rail rail_electric ship" dump_speed="10.08" from="node_01x15" id="xedge_01x30" len="100.0" numLanes="1" priority="5" slowdown="3.81" slowdown_ratio="0.274298056156" speed="13.89" to="node_01x16" type="highway.undefined" />
    <edge disallow="tram rail_urban rail rail_electric ship" dump_speed="10.33" from="node_01x16" id="xedge_01x31" len="100.0" numLanes="1" priority="5" slowdown="3.56" slowdown_ratio="0.25629949604" speed="13.89" to="node_01x15" type="highway.undefined" />
    <edge disallow="tram rail_urban rail rail_electric ship" dump_speed="10.55" from="node_01x17" id="xedge_01x34" len="100.0" numLanes="1" priority="5" slowdown="3.34" slowdown_ratio="0.240460763139" speed="13.89" to="node_01x18" type="highway.undefined" />
    <edge disallow="tram rail_urban rail rail_electric ship" dump_speed="10.37" from="node_01x18" id="xedge_01x35" len="100.0" numLanes="1" priority="5" slowdown="3.52" slowdown_ratio="0.253419726422" speed="13.89" to="node_01x17" type="highway.undefined" />
    <edge disallow="tram rail_urban rail rail_electric ship" dump_speed="10.68" from="node_01x18" id="xedge_01x36" len="100.0" numLanes="1" priority="5" slowdown="3.21" slowdown_ratio="0.231101511879" speed="13.89" to="node_01x19" type="highway.undefined" />
    <edge disallow="tram rail_urban rail rail_electric ship" dump_speed="10.44" from="node_01x19" id="xedge_01x37" len="100.0" numLanes="1" priority="5" slowdown="3.45" slowdown_ratio="0.24838012959" speed="13.89" to="node_01x18" type="highway.undefined" />
    <edge disallow="tram rail_urban rail rail_electric ship" dump_speed="10.81" from="node_01x19" id="xedge_01x38" len="100.0" numLanes="1" priority="5" slowdown="3.08" slowdown_ratio="0.221742260619" speed="13.89" to="node_01x20" type="highway.undefined" />
    <edge disallow="tram rail_urban rail rail_electric ship" dump_speed="9.87" from="node_01x20" id="xedge_01x39" len="100.0" numLanes="1" priority="5" slowdown="4.02" slowdown_ratio="0.289416846652" speed="13.89" to="node_01x19" type="highway.undefined" />
    <edge disallow="tram rail_urban rail rail_electric ship" dump_speed="10.63" from="node_02x00" id="xedge_02x00" len="100.0" numLanes="1" priority="5" slowdown="3.26" slowdown_ratio="0.234701223902" speed="13.89" to="node_02x01" type="highway.undefined" />
    <edge disallow="tram rail_urban rail rail_electric ship" dump_speed="10.02" from="node_02x01" id="xedge_02x01" len="100.0" numLanes="1" priority="5" slowdown="3.87" slowdown_ratio="0.278617710583" speed="13.89" to="node_02x00" type="highway.undefined" />
    <edge disallow="tram rail_urban rail rail_electric ship" dump_speed="10.54" from="node_02x01" id="xedge_02x02" len="100.0" numLanes="1" priority="5" slowdown="3.35" slowdown_ratio="0.241180705544" speed="13.89" to="node_02x02" type="highway.undefined" />
    <edge disallow="tram rail_urban rail rail_electric ship" dump_speed="10.17" from="node_02x02" id="xedge_02x03" len="100.0" numLanes="1" priority="5" slowdown="3.72" slowdown_ratio="0.267818574514" speed="13.89" to="node_02x01" type="highway.undefined" />
    <edge disallow="tram rail_urban rail rail_electric ship" dump_speed="10.34" from="node_02x02" id="xedge_02x04" len="100.0" numLanes="1" priority="5" slowdown="3.55" slowdown_ratio="0.255579553636" speed="13.89" to="node_02x03" type="highway.undefined" />
    <edge disallow="tram rail_urban rail rail_electric ship" dump_speed="10.72" from="node_02x03" id="xedge_02x05" len="100.0" numLanes="1" priority="5" slowdown="3.17" slowdown_ratio="0.228221742261" speed="13.89" to="node_02x02" type="highway.undefined" />
    <edge disallow="tram rail_urban rail rail_electric ship" dump_speed="10.51" from="node_02x03" id="xedge_02x06" len="100.0" numLanes="1" priority="5" slowdown="3.38" slowdown_ratio="0.243340532757" speed="13.89" to="node_02x04" type="highway.undefined" />
    <edge disallow="tram rail_urban rail rail_electric ship" dump_speed="10.78" from="node_02x04" id="xedge_02x07" len="100.0" numLanes="1" priority="5" slowdown="3.11" slowdown_ratio="0.223902087833" speed="13.89" to="node_02x03" type="highway.undefined" />
    <edge disallow="tram rail_urban rail rail_electric ship" dump_speed="10.56" from="node_02x04" id="xedge_02x08" len="100.0" numLanes="1" priority="5" slowdown="3.33" slowdown_ratio="0.239740820734" speed="13.89" to="node_02x05" type="highway.undefined" />
    <edge disallow="tram rail_urban rail rail_electric ship" dump_speed="10.04" from="node_02x05" id="xedge_02x09" len="100.0" numLanes="1" priority="5" slowdown="3.85" slowdown_ratio="0.277177825774" speed="13.89" to="node_02x04" type="highway.undefined" />
    <edge disallow="tram rail_urban rail rail_electric ship" dump_speed="10.19" from="node_02x05" id="xedge_02x10" len="100.0" numLanes="1" priority="5" slowdown="3.7" slowdown_ratio="0.266378689705" speed="13.89" to="node_02x06" type="highway.undefined" />
    <edge disallow="tram rail_urban rail rail_electric ship" dump_speed="10.65" from="node_02x06" id="xedge_02x11" len="100.0" numLanes="1" priority="5" slowdown="3.24" slowdown_ratio="0.233261339093" speed="13.89" to="node_02x05" type="highway.undefined" />
    <edge disallow="tram rail_urban rail rail_electric ship" dump_speed="10.32" from="node_02x06" id="xedge_02x12" len="100.0" numLanes="1" priority="5" slowdown="3.57" slowdown_ratio="0.257019438445" speed="13.89" to="node_02x07" type="highway.undefined" />
    <edge disallow="tram rail_urban rail rail_electric ship" dump_speed="10.44" from="node_02x07" id="xedge_02x13" len="100.0" numLanes="1" priority="5" slowdown="3.45" slowdown_ratio="0.24838012959" speed="13.89" to="node_02x06" type="highway.undefined" />
    <edge disallow="tram rail_urban rail rail_electric ship" dump_speed="10.01" from="node_02x07" id="xedge_02x14" len="100.0" numLanes="1" priority="5" slowdown="3.88" slowdown_ratio="0.279337652988" speed="13.89" to="node_02x08" type="highway.undefined" />
    <edge disallow="tram rail_urban rail rail_electric ship" dump_speed="10.61" from="node_02x08" id="xedge_02x15" len="100.0" numLanes="1" priority="5" slowdown="3.28" slowdown_ratio="0.236141108711" speed="13.89" to="node_02x07" type="highway.undefined" />
    <edge disallow="tram rail_urban rail rail_electric ship" dump_speed="10.66" from="node_02x08" id="xedge_02x16" len="100.0" numLanes="1" priority="5" slowdown="3.23" slowdown_ratio="0.232541396688" speed="13.89" to="node_02x09" type="highway.undefined" />
    <edge disallow="tram rail_urban rail rail_electric ship" dump_speed="10.56" from="node_02x09" id="xedge_02x17" len="100.0" numLanes="1" priority="5" slowdown="3.33" slowdown_ratio="0.239740820734" speed="13.89" to="node_02x08" type="highway.undefined" />
    <edge disallow="tram rail_urban rail rail_electric ship" dump_speed="10.11" from="node_02x09" id="xedge_02x18" len="100.0" numLanes="1" priority="5" slowdown="3.78" slowdown_ratio="0.272138228942" speed="13.89" to="node_02x10" type="highway.undefined" />
    <edge disallow="tram rail_urban rail rail_electric ship" dump_speed="10.56" from="node_02x10" id="xedge_02x19" len="100.0" numLanes="1" priority="5" slowdown="3.33" slowdown_ratio="0.239740820734" speed="13.89" to="node_02x09" type="highway.undefined" />
    <edge disallow="tram rail_urban rail rail_electric ship" dump_speed="10.27" from="node_02x10" id="xedge_02x20" len="100.0" numLanes="1" priority="5" slowdown="3.62" slowdown_ratio="0.260619150468" speed="13.89" to="node_02x11" type="highway.undefined" />
    <edge disallow="tram rail_urban rail rail_electric ship" dump_speed="10.41" from="node_02x11" id="xedge_02x21" len="100.0" numLanes="1" priority="5" slowdown="3.48" slowdown_ratio="0.250539956803" speed="13.89" to="node_02x10" type="highway.undefined" />
    <edge disallow="tram rail_urban rail rail_electric ship" dump_speed="10.23" from="node_02x11" id="xedge_02x22" len="100.0" numLanes="1" priority="5" slowdown="3.66" slowdown_ratio="0.263498920086" speed="13.89" to="node_02x12" type="highway.undefined" />
    <edge disallow="tram rail_urban rail rail_electric ship" dump_speed="9.78" from="node_02x12" id="xedge_02x23" len="100.0" numLanes="1" priority="5" slowdown="4.11" slowdown_ratio="0.295896328294" speed="13.89" to="node_02x11" type="highway.undefined" />
    <edge disallow="tram rail_urban rail rail_electric ship" dump_speed="10.47" from="node_02x13" id="xedge_02x26" len="100.0" numLanes="1" priority="5" slowdown="3.42" slowdown_ratio="0.246220302376" speed="13.89" to="node_02x14" type="highway.undefined" />
    <edge disallow="tram rail_urban rail rail_electric ship" dump_speed="10.6" from="node_02x14" id="xedge_02x27" len="100.0" numLanes="1" priority="5" slowdown="3.29" slowdown_ratio="0.236861051116" speed="13.89" to="node_02x13" type="highway.undefined" />
    <edge disallow="tram rail_urban rail rail_electric ship" dump_speed="10.74" from="node_02x14" id="xedge_02x28" len="100.0" numLanes="1" priority="5" slowdown="3.15" slowdown_ratio="0.226781857451" speed="13.89" to="node_02x15" type="highway.undefined" />
    <edge disallow="tram rail_urban rail rail_electric ship" dump_speed="10.01" from="node_02x15" id="xedge_02x29" len="100.0" numLanes="1" priority="5" slowdown="3.88" slowdown_ratio="0.279337652988" speed="13.89" to="node_02x14" type="highway.undefined" />
    <edge disallow="tram rail_urban rail rail_electric ship" dump_speed="10.64" from="node_02x15" id="xedge_02x30" len="100.0" numLanes="1" priority="5" slowdown="3.25" slowdown_ratio="0.233981281497" speed="13.89" to="node_02x16" type="highway.undefined" />
    <edge disallow="tram rail_urban rail rail_electric ship" dump_speed="9.95" from="node_02x16" id="xedge_02x31" len="100.0" numLanes="1" priority="5" slowdown="3.94" slowdown_ratio="0.283657307415" speed="13.89" to="node_02x15" type="highway.undefined" />
    <edge disallow="tram rail_urban rail rail_electric ship" dump_speed="10.58" from="node_02x16" id="xedge_02x32" len="100.0" numLanes="1" priority="5" slowdown="3.31" slowdown_ratio="0.238300935925" speed="13.89" to="node_02x17" type="highway.undefined" />
    <edge disallow="tram rail_urban rail rail_electric ship" dump_speed="10.43" from="node_02x17" id="xedge_02x33" len="100.0" numLanes="1" priority="5" slowdown="3.46" slowdown_ratio="0.249100071994" speed="13.89" to="node_02x16" type="highway.undefined" />
    <edge disallow="tram rail_urban rail rail_electric ship" dump_speed="10.66" from="node_02x18" id="xedge_02x36" len="100.0" numLanes="1" priority="5" slowdown="3.23" slowdown_ratio="0.232541396688" speed="13.89" to="node_02x19" type="highway.undefined" />
    <edge disallow="tram rail_urban rail rail_electric ship" dump_speed="10.36" from="node_02x19" id="xedge_02x37" len="100.0" numLanes="1" priority="5" slowdown="3.53" slowdown_ratio="0.254139668826" speed="13.89" to="node_02x18" type="highway.undefined" />
    <edge disallow="tram rail_urban rail rail_electric ship" dump_speed="10.2" from="node_02x19" id="xedge_02x38" len="100.0" numLanes="1" priority="5" slowdown="3.69" slowdown_ratio="0.2656587473" speed="13.89" to="node_02x20" type="highway.undefined" />
    <edge disallow="tram rail_urban rail rail_electric ship" dump_speed="9.62" from="node_02x20" id="xedge_02x39" len="100.0" numLanes="1" priority="5" slowdown="4.27" slowdown_ratio="0.307415406767" speed="13.89" to="node_02x19" type="highway.undefined" />
    <edge disallow="tram rail_urban rail rail_electric ship" dump_speed="10.17" from="node_03x00" id="xedge_03x00" len="100.0" numLanes="1" priority="5" slowdown="3.72" slowdown_ratio="0.267818574514" speed="13.89" to="node_03x01" type="highway.undefined" />
    <edge disallow="tram rail_urban rail rail_electric ship" dump_speed="10.46" from="node_03x01" id="xedge_03x01" len="100.0" numLanes="1" priority="5" slowdown="3.43" slowdown_ratio="0.24694024478" speed="13.89" to="node_03x00" type="highway.undefined" />
    <edge disallow="tram rail_urban rail rail_electric ship" dump_speed="10.48" from="node_03x01" id="xedge_03x02" len="100.0" numLanes="1" priority="5" slowdown="3.41" slowdown_ratio="0.245500359971" speed="13.89" to="node_03x02" type="highway.undefined" />
    <edge disallow="tram rail_urban rail rail_electric ship" dump_speed="10.7" from="node_03x02" id="xedge_03x03" len="100.0" numLanes="1" priority="5" slowdown="3.19" slowdown_ratio="0.22966162707" speed="13.89" to="node_03x01" type="highway.undefined" />
    <edge disallow="tram rail_urban rail rail_electric ship" dump_speed="10.43" from="node_03x02" id="xedge_03x04" len="100.0" numLanes="1" priority="5" slowdown="3.46" slowdown_ratio="0.249100071994" speed="13.89" to="node_03x03" type="highway.undefined" />
    <edge disallow="tram rail_urban rail rail_electric ship" dump_speed="10.48" from="node_03x03" id="xedge_03x05" len="100.0" numLanes="1" priority="5" slowdown="3.41" slowdown_ratio="0.245500359971" speed="13.89" to="node_03x02" type="highway.undefined" />
    <edge disallow="tram rail_urban rail rail_electric ship" dump_speed="10.38" from="node_03x03" id="xedge_03x06" len="100.0" numLanes="1" priority="5" slowdown="3.51" slowdown_ratio="0.252699784017" speed="13.89" to="node_03x04" type="highway.undefined" />
    <edge disallow="tram rail_urban rail rail_electric ship" dump_speed="10.58" from="node_03x04" id="xedge_03x07" len="100.0" numLanes="1" priority="5" slowdown="3.31" slowdown_ratio="0.238300935925" speed="13.89" to="node_03x03" type="highway.undefined" />
    <edge disallow="tram rail_urban rail rail_electric ship" dump_speed="10.47" from="node_03x04" id="xedge_03x08" len="100.0" numLanes="1" priority="5" slowdown="3.42" slowdown_ratio="0.246220302376" speed="13.89" to="node_03x05" type="highway.undefined" />
    <edge disallow="tram rail_urban rail rail_electric ship" dump_speed="10.55" from="node_03x05" id="xedge_03x09" len="100.0" numLanes="1" priority="5" slowdown="3.34" slowdown_ratio="0.240460763139" speed="13.89" to="node_03x04" type="highway.undefined" />
    <edge disallow="tram rail_urban rail rail_electric ship" dump_speed="10.32" from="node_03x05" id="xedge_03x10" len="100.0" numLanes="1" priority="5" slowdown="3.57" slowdown_ratio="0.257019438445" speed="13.89" to="node_03x06" type="highway.undefined" />
    <edge disallow="tram rail_urban rail rail_electric ship" dump_speed="10.64" from="node_03x06" id="xedge_03x11" len="100.0" numLanes="1" priority="5" slowdown="3.25" slowdown_ratio="0.233981281497" speed="13.89" to="node_03x05" type="highway.undefined" />
    <edge disallow="tram rail_urban rail rail_electric ship" dump_speed="10.76" from="node_03x06" id="xedge_03x12" len="100.0" numLanes="1" priority="5" slowdown="3.13" slowdown_ratio="0.225341972642" speed="13.89" to="node_03x07" type="highway.undefined" />
    <edge disallow="tram rail_urban rail rail_electric ship" dump_speed="10.36" from="node_03x07" id="xedge_03x13" len="100.0" numLanes="1" priority="5" slowdown="3.53" slowdown_ratio="0.254139668826" speed="13.89" to="node_03x06" type="highway.undefined" />
    <edge disallow="tram rail_urban rail rail_electric ship" dump_speed="9.85" from="node_03x07" id="xedge_03x14" len="100.0" numLanes="1" priority="5" slowdown="4.04" slowdown_ratio="0.290856731461" speed="13.89" to="node_03x08" type="highway.undefined" />
    <edge disallow="tram rail_urban rail rail_electric ship" dump_speed="10.37" from="node_03x08" id="xedge_03x15" len="100.0" numLanes="1" priority="5" slowdown="3.52" slowdown_ratio="0.253419726422" speed="13.89" to="node_03x07" type="highway.undefined" />
    <edge disallow="tram rail_urban rail rail_electric ship" dump_speed="10.2" from="node_03x09" id="xedge_03x18" len="100.0" numLanes="1" priority="5" slowdown="3.69" slowdown_ratio="0.2656587473" speed="13.89" to="node_03x10" type="highway.undefined" />
    <edge disallow="tram rail_urban rail rail_electric ship" dump_speed="10.39" from="node_03x10" id="xedge_03x19" len="100.0" numLanes="1" priority="5" slowdown="3.5" slowdown_ratio="0.251979841613" speed="13.89" to="node_03x09" type="highway.undefined" />
    <edge disallow="tram rail_urban rail rail_electric ship" dump_speed="10.1" from="node_03x10" id="xedge_03x20" len="100.0" numLanes="1" priority="5" slowdown="3.79" slowdown_ratio="0.272858171346" speed="13.89" to="node_03x11" type="highway.undefined" />
    <edge disallow="tram rail_urban rail rail_electric ship" dump_speed="9.78" from="node_03x11" id="xedge_03x21" len="100.0" numLanes="1" priority="5" slowdown="4.11" slowdown_ratio="0.295896328294" speed="13.89" to="node_03x10" type="highway.undefined" />
    <edge disallow="tram rail_urban rail rail_electric ship" dump_speed="9.22" from="node_03x11" id="xedge_03x22" len="100.0" numLanes="1" priority="5" slowdown="4.67" slowdown_ratio="0.336213102952" speed="13.89" to="node_03x12" type="highway.undefined" />
    <edge disallow="tram rail_urban rail rail_electric ship" dump_speed="10.36" from="node_03x12" id="xedge_03x23" len="100.0" numLanes="1" priority="5" slowdown="3.53" slowdown_ratio="0.254139668826" speed="13.89" to="node_03x11" type="highway.undefined" />
    <edge disallow="tram rail_urban rail rail_electric ship" dump_speed="9.92" from="node_03x12" id="xedge_03x24" len="100.0" numLanes="1" priority="5" slowdown="3.97" slowdown_ratio="0.285817134629" speed="13.89" to="node_03x13" type="highway.undefined" />
    <edge disallow="tram rail_urban rail rail_electric ship" dump_speed="10.42" from="node_03x13" id="xedge_03x25" len="100.0" numLanes="1" priority="5" slowdown="3.47" slowdown_ratio="0.249820014399" speed="13.89" to="node_03x12" type="highway.undefined" />
    <edge disallow="tram rail_urban rail rail_electric ship" dump_speed="10.46" from="node_03x13" id="xedge_03x26" len="100.0" numLanes="1" priority="5" slowdown="3.43" slowdown_ratio="0.24694024478" speed="13.89" to="node_03x14" type="highway.undefined" />