<?xml version="1.0" encoding="UTF-8"?>

<!-- generated on 12/03/16 19:39:04 by SUMO netconvert Version 0.27.1
<?xml version="1.0" encoding="UTF-8"?>

<configuration xmlns:xsi="http://www.w3.org/2001/XMLSchema-instance" xsi:noNamespaceSchemaLocation="http://sumo.dlr.de/xsd/netconvertConfiguration.xsd">

    <input>
        <node-files value="C:\Users\zs633\capstone\8_linear\test_random\7_displaced\linear.nod.xml"/>
        <edge-files value="C:\Users\zs633\capstone\8_linear\test_random\7_displaced\linear.edg.xml"/>
        <connection-files value="C:\Users\zs633\capstone\8_linear\test_random\4_plain\test.con.xml"/>
        <tllogic-files value="C:\Users\zs633\capstone\8_linear\test_random\4_plain\test.tll.xml"/>
    </input>

    <output>
        <output-file value="C:\Users\zs633\capstone\8_linear\test_random\9_output_net\linear.net.xml"/>
    </output>

    <processing>
        <ignore-errors value="true"/>
        <ignore-errors.edge-type value="true"/>
    </processing>

    <report>
        <verbose value="true"/>
        <xml-validation value="never"/>
        <no-warnings value="true"/>
    </report>

</configuration>
-->

<net version="0.27" xmlns:xsi="http://www.w3.org/2001/XMLSchema-instance" xsi:noNamespaceSchemaLocation="http://sumo.dlr.de/xsd/net_file.xsd">

    <location netOffset="1935.37,1915.54" convBoundary="0.00,0.00,6022.06,5844.62" origBoundary="-1935.37,-1915.54,4086.69,3929.07" projParameter="!"/>

    <edge id=":node_00x00_0" function="internal">
        <lane id=":node_00x00_0_0" index="0" disallow="tram rail_urban rail rail_electric ship" speed="13.89" length="1.12" shape="1730.64,1720.62 1730.35,1720.77 1730.16,1720.91 1730.03,1721.10 1729.89,1721.39"/>
    </edge>
    <edge id=":node_00x00_1" function="internal">
        <lane id=":node_00x00_1_0" index="0" disallow="tram rail_urban rail rail_electric ship" speed="13.89" length="3.42" shape="1726.88,1720.03 1727.32,1719.13 1727.73,1718.55 1728.29,1718.12 1729.18,1717.66"/>
    </edge>
    <edge id=":node_00x01_0" function="internal">
        <lane id=":node_00x01_0_0" index="0" disallow="tram rail_urban rail rail_electric ship" speed="13.89" length="9.88" shape="1648.54,1915.38 1645.13,1916.66 1642.59,1917.89 1640.94,1919.08 1640.17,1920.22"/>
    </edge>
    <edge id=":node_00x01_1" function="internal">
        <lane id=":node_00x01_1_0" index="0" disallow="tram rail_urban rail rail_electric ship" speed="13.89" length="16.05" shape="1648.54,1915.38 1643.57,1916.45 1640.78,1915.54 1640.15,1912.67 1641.71,1907.83"/>
    </edge>
    <edge id=":node_00x01_2" function="internal">
        <lane id=":node_00x01_2_0" index="0" disallow="tram rail_urban rail rail_electric ship" speed="13.89" length="6.51" shape="1644.71,1909.19 1644.08,1911.16 1644.34,1912.32 1645.47,1912.69 1647.49,1912.25"/>
    </edge>
    <edge id=":node_00x01_3" function="internal">
        <lane id=":node_00x01_3_0" index="0" disallow="tram rail_urban rail rail_electric ship" speed="13.89" length="11.93" shape="1644.71,1909.19 1640.17,1920.22"/>
    </edge>
    <edge id=":node_00x01_4" function="internal">
        <lane id=":node_00x01_4_0" index="0" disallow="tram rail_urban rail rail_electric ship" speed="13.89" length="12.38" shape="1637.00,1919.27 1638.06,1916.10 1639.12,1913.46 1640.30,1910.86 1641.71,1907.83"/>
    </edge>
    <edge id=":node_00x01_5" function="internal">
        <lane id=":node_00x01_5_0" index="0" disallow="tram rail_urban rail rail_electric ship" speed="13.89" length="12.97" shape="1637.00,1919.27 1638.09,1917.38 1640.20,1915.59 1643.33,1913.88 1647.49,1912.25"/>
    </edge>
    <edge id=":node_00x02_0" function="internal">
        <lane id=":node_00x02_0_0" index="0" disallow="tram rail_urban rail rail_electric ship" speed="13.89" length="4.90" shape="1600.67,2072.81 1595.81,2073.47"/>
    </edge>
    <edge id=":node_00x02_1" function="internal">
        <lane id=":node_00x02_1_0" index="0" disallow="tram rail_urban rail rail_electric ship" speed="13.89" length="15.89" shape="1600.67,2072.81 1595.93,2074.45 1593.06,2073.89 1592.06,2071.14 1592.93,2066.20"/>
    </edge>
    <edge id=":node_00x02_2" function="internal">
        <lane id=":node_00x02_2_0" index="0" disallow="tram rail_urban rail rail_electric ship" speed="13.89" length="6.46" shape="1596.09,2067.15 1595.74,2069.16 1596.14,2070.28 1597.31,2070.50 1599.24,2069.84"/>
    </edge>
    <edge id=":node_00x02_3" function="internal">
        <lane id=":node_00x02_3_0" index="0" disallow="tram rail_urban rail rail_electric ship" speed="13.89" length="6.61" shape="1596.09,2067.15 1595.97,2069.09 1596.42,2070.58 1596.64,2071.93 1595.81,2073.47"/>
    </edge>
    <edge id=":node_00x02_4" function="internal">
        <lane id=":node_00x02_4_0" index="0" disallow="tram rail_urban rail rail_electric ship" speed="13.89" length="5.35" shape="1593.40,2071.22 1593.95,2070.00 1593.54,2068.92 1592.94,2067.74 1592.93,2066.20"/>
    </edge>
    <edge id=":node_00x02_5" function="internal">
        <lane id=":node_00x02_5_0" index="0" disallow="tram rail_urban rail rail_electric ship" speed="13.89" length="6.20" shape="1593.40,2071.22 1594.80,2070.26 1596.07,2070.19 1597.48,2070.29 1599.24,2069.84"/>
    </edge>
    <edge id=":node_00x03_0" function="internal">
        <lane id=":node_00x03_0_0" index="0" disallow="tram rail_urban rail rail_electric ship" speed="13.89" length="6.25" shape="1544.36,2138.43 1538.11,2138.16"/>
    </edge>
    <edge id=":node_00x03_1" function="internal">
        <lane id=":node_00x03_1_0" index="0" disallow="tram rail_urban rail rail_electric ship" speed="13.89" length="45.74" shape="1544.36,2138.43 1530.10,2147.29 1524.26,2148.96 1526.83,2143.46 1537.82,2130.76"/>
    </edge>
    <edge id=":node_00x03_2" function="internal">
        <lane id=":node_00x03_2_0" index="0" disallow="tram rail_urban rail rail_electric ship" speed="13.89" length="15.97" shape="1540.23,2133.02 1536.39,2137.45 1535.50,2139.37 1537.54,2138.79 1542.52,2135.69"/>
    </edge>
    <edge id=":node_00x03_3" function="internal">
        <lane id=":node_00x03_3_0" index="0" disallow="tram rail_urban rail rail_electric ship" speed="13.89" length="5.70" shape="1540.23,2133.02 1539.39,2134.41 1539.23,2135.65 1539.04,2136.85 1538.11,2138.16"/>
    </edge>
    <edge id=":node_00x03_4" function="internal">
        <lane id=":node_00x03_4_0" index="0" disallow="tram rail_urban rail rail_electric ship" speed="13.89" length="5.47" shape="1535.88,2135.73 1536.76,2134.47 1536.91,2133.30 1537.03,2132.11 1537.82,2130.76"/>
    </edge>
    <edge id=":node_00x03_5" function="internal">
        <lane id=":node_00x03_5_0" index="0" disallow="tram rail_urban rail rail_electric ship" speed="13.89" length="7.03" shape="1535.88,2135.73 1537.57,2135.04 1539.09,2135.56 1540.66,2136.17 1542.52,2135.69"/>
    </edge>
    <edge id=":node_00x04_0" function="internal">
        <lane id=":node_00x04_0_0" index="0" disallow="tram rail_urban rail rail_electric ship" speed="13.89" length="5.03" shape="1457.83,2211.66 1454.19,2215.13"/>
    </edge>
    <edge id=":node_00x04_1" function="internal">
        <lane id=":node_00x04_1_0" index="0" disallow="tram rail_urban rail rail_electric ship" speed="13.89" length="19.07" shape="1457.83,2211.66 1452.78,2215.47 1449.60,2215.90 1448.30,2212.97 1448.88,2206.67"/>
    </edge>
    <edge id=":node_00x04_2" function="internal">
        <lane id=":node_00x04_2_0" index="0" disallow="tram rail_urban rail rail_electric ship" speed="13.89" length="7.41" shape="1452.13,2207.29 1451.90,2209.74 1452.40,2210.87 1453.64,2210.71 1455.60,2209.23"/>
    </edge>
    <edge id=":node_00x04_3" function="internal">
        <lane id=":node_00x04_3_0" index="0" disallow="tram rail_urban rail rail_electric ship" speed="13.89" length="8.11" shape="1452.13,2207.29 1454.19,2215.13"/>
    </edge>
    <edge id=":node_00x04_4" function="internal">
        <lane id=":node_00x04_4_0" index="0" disallow="tram rail_urban rail rail_electric ship" speed="13.89" length="7.56" shape="1452.00,2212.66 1452.49,2211.24 1451.15,2210.07 1449.46,2208.69 1448.88,2206.67"/>
    </edge>
    <edge id=":node_00x04_5" function="internal">
        <lane id=":node_00x04_5_0" index="0" disallow="tram rail_urban rail rail_electric ship" speed="13.89" length="4.98" shape="1452.00,2212.66 1455.60,2209.23"/>
    </edge>
    <edge id=":node_00x05_0" function="internal">
        <lane id=":node_00x05_0_0" index="0" disallow="tram rail_urban rail rail_electric ship" speed="13.89" length="4.96" shape="1334.00,2321.76 1330.21,2324.96"/>
    </edge>
    <edge id=":node_00x05_1" function="internal">
        <lane id=":node_00x05_1_0" index="0" disallow="tram rail_urban rail rail_electric ship" speed="13.89" length="16.84" shape="1334.00,2321.76 1329.58,2324.89 1326.59,2325.17 1325.02,2322.60 1324.87,2317.19"/>
    </edge>
    <edge id=":node_00x05_2" function="internal">
        <lane id=":node_00x05_2_0" index="0" disallow="tram rail_urban rail rail_electric ship" speed="13.89" length="6.74" shape="1328.16,2317.46 1328.22,2319.63 1328.85,2320.66 1330.04,2320.54 1331.81,2319.29"/>
    </edge>
    <edge id=":node_00x05_3" function="internal">
        <lane id=":node_00x05_3_0" index="0" disallow="tram rail_urban rail rail_electric ship" speed="13.89" length="7.77" shape="1328.16,2317.46 1330.21,2324.96"/>
    </edge>
    <edge id=":node_00x05_4" function="internal">
        <lane id=":node_00x05_4_0" index="0" disallow="tram rail_urban rail rail_electric ship" speed="13.89" length="6.93" shape="1327.96,2322.55 1328.39,2321.25 1327.16,2320.23 1325.56,2319.03 1324.87,2317.19"/>
    </edge>
    <edge id=":node_00x05_5" function="internal">
        <lane id=":node_00x05_5_0" index="0" disallow="tram rail_urban rail rail_electric ship" speed="13.89" length="5.05" shape="1327.96,2322.55 1331.81,2319.29"/>
    </edge>
    <edge id=":node_00x06_0" function="internal">
        <lane id=":node_00x06_0_0" index="0" disallow="tram rail_urban rail rail_electric ship" speed="13.89" length="5.50" shape="1230.14,2418.59 1228.77,2419.34 1227.50,2419.37 1226.32,2419.47 1225.18,2420.42"/>
    </edge>
    <edge id=":node_00x06_1" function="internal">
        <lane id=":node_00x06_1_0" index="0" disallow="tram rail_urban rail rail_electric ship" speed="13.89" length="23.80" shape="1230.14,2418.59 1223.71,2423.76 1220.14,2424.55 1219.43,2420.96 1221.58,2413.00"/>
    </edge>
    <edge id=":node_00x06_2" function="internal">
        <lane id=":node_00x06_2_0" index="0" disallow="tram rail_urban rail rail_electric ship" speed="13.89" length="8.89" shape="1224.69,2414.10 1223.89,2417.07 1224.15,2418.41 1225.49,2418.11 1227.89,2416.18"/>
    </edge>
    <edge id=":node_00x06_3" function="internal">
        <lane id=":node_00x06_3_0" index="0" disallow="tram rail_urban rail rail_electric ship" speed="13.89" length="6.64" shape="1224.69,2414.10 1224.58,2415.98 1225.22,2417.40 1225.72,2418.75 1225.18,2420.42"/>
    </edge>
    <edge id=":node_00x06_4" function="internal">
        <lane id=":node_00x06_4_0" index="0" disallow="tram rail_urban rail rail_electric ship" speed="13.89" length="5.93" shape="1222.47,2418.53 1222.88,2417.07 1222.28,2415.89 1221.55,2414.65 1221.58,2413.00"/>
    </edge>
    <edge id=":node_00x06_5" function="internal">
        <lane id=":node_00x06_5_0" index="0" disallow="tram rail_urban rail rail_electric ship" speed="13.89" length="6.09" shape="1222.47,2418.53 1223.73,2417.42 1225.01,2417.20 1226.37,2417.06 1227.89,2416.18"/>
    </edge>
    <edge id=":node_00x07_0" function="internal">
        <lane id=":node_00x07_0_0" index="0" disallow="tram rail_urban rail rail_electric ship" speed="13.89" length="5.08" shape="1137.81,2545.44 1135.09,2549.74"/>
    </edge>
    <edge id=":node_00x07_1" function="internal">
        <lane id=":node_00x07_1_0" index="0" disallow="tram rail_urban rail rail_electric ship" speed="13.89" length="17.96" shape="1137.81,2545.44 1133.97,2549.89 1131.04,2550.93 1129.03,2548.56 1127.92,2542.80"/>
    </edge>
    <edge id=":node_00x07_2" function="internal">
        <lane id=":node_00x07_2_0" index="0" disallow="tram rail_urban rail rail_electric ship" speed="13.89" length="7.07" shape="1131.21,2542.51 1131.64,2544.78 1132.44,2545.71 1133.59,2545.31 1135.10,2543.55"/>
    </edge>
    <edge id=":node_00x07_3" function="internal">
        <lane id=":node_00x07_3_0" index="0" disallow="tram rail_urban rail rail_electric ship" speed="13.89" length="8.21" shape="1131.21,2542.51 1135.09,2549.74"/>
    </edge>
    <edge id=":node_00x07_4" function="internal">
        <lane id=":node_00x07_4_0" index="0" disallow="tram rail_urban rail rail_electric ship" speed="13.89" length="7.57" shape="1132.48,2547.74 1132.67,2546.31 1131.07,2545.52 1129.04,2544.61 1127.92,2542.80"/>
    </edge>
    <edge id=":node_00x07_5" function="internal">
        <lane id=":node_00x07_5_0" index="0" disallow="tram rail_urban rail rail_electric ship" speed="13.89" length="4.94" shape="1132.48,2547.74 1133.32,2546.54 1133.82,2545.67 1134.31,2544.79 1135.10,2543.55"/>
    </edge>
    <edge id=":node_00x08_0" function="internal">
        <lane id=":node_00x08_0_0" index="0" disallow="tram rail_urban rail rail_electric ship" speed="13.89" length="9.06" shape="1061.22,2646.10 1056.22,2653.66"/>
    </edge>
    <edge id=":node_00x08_1" function="internal">
        <lane id=":node_00x08_1_0" index="0" disallow="tram rail_urban rail rail_electric ship" speed="13.89" length="12.28" shape="1061.22,2646.10 1058.68,2648.59 1056.22,2649.35 1053.82,2648.39 1051.49,2645.71"/>
    </edge>
    <edge id=":node_00x08_2" function="internal">
        <lane id=":node_00x08_2_0" index="0" disallow="tram rail_urban rail rail_electric ship" speed="13.89" length="5.48" shape="1054.26,2643.92 1055.30,2645.11 1056.37,2645.54 1057.47,2645.20 1058.60,2644.09"/>
    </edge>
    <edge id=":node_00x08_3" function="internal">
        <lane id=":node_00x08_3_0" index="0" disallow="tram rail_urban rail rail_electric ship" speed="13.89" length="10.36" shape="1054.26,2643.92 1055.82,2646.74 1056.66,2649.31 1056.80,2651.61 1056.22,2653.66"/>
    </edge>
    <edge id=":node_00x08_4" function="internal">
        <lane id=":node_00x08_4_0" index="0" disallow="tram rail_urban rail rail_electric ship" speed="13.89" length="7.00" shape="1053.25,2652.22 1053.54,2651.00 1053.34,2649.51 1052.65,2647.75 1051.49,2645.71"/>
    </edge>
    <edge id=":node_00x08_5" function="internal">
        <lane id=":node_00x08_5_0" index="0" disallow="tram rail_urban rail rail_electric ship" speed="13.89" length="9.76" shape="1053.25,2652.22 1054.57,2649.65 1055.61,2647.96 1056.81,2646.37 1058.60,2644.09"/>
    </edge>
    <edge id=":node_00x09_0" function="internal">
        <lane id=":node_00x09_0_0" index="0" disallow="tram rail_urban rail rail_electric ship" speed="13.89" length="6.07" shape="1006.39,2753.60 1005.99,2752.50 1005.19,2751.41 1003.97,2750.34 1002.35,2749.29"/>
    </edge>
    <edge id=":node_00x09_1" function="internal">
        <lane id=":node_00x09_1_0" index="0" disallow="tram rail_urban rail rail_electric ship" speed="13.89" length="8.91" shape="1006.39,2753.60 1006.09,2751.03 1006.30,2749.23 1007.00,2747.50 1008.19,2745.13"/>
    </edge>
    <edge id=":node_00x09_2" function="internal">
        <lane id=":node_00x09_2_0" index="0" disallow="tram rail_urban rail rail_electric ship" speed="13.89" length="6.84" shape="1011.16,2746.57 1010.23,2748.38 1009.64,2749.70 1009.43,2751.07 1009.64,2753.04"/>
    </edge>
    <edge id=":node_00x09_3" function="internal">
        <lane id=":node_00x09_3_0" index="0" disallow="tram rail_urban rail rail_electric ship" speed="13.89" length="10.68" shape="1011.16,2746.57 1009.50,2749.02 1007.48,2750.29 1005.10,2750.38 1002.35,2749.29"/>
    </edge>
    <edge id=":node_00x09_4" function="internal">
        <lane id=":node_00x09_4_0" index="0" disallow="tram rail_urban rail rail_electric ship" speed="13.89" length="5.08" shape="1004.00,2746.43 1005.30,2746.94 1006.44,2746.90 1007.40,2746.30 1008.19,2745.13"/>
    </edge>
    <edge id=":node_00x09_5" function="internal">
        <lane id=":node_00x09_5_0" index="0" disallow="tram rail_urban rail rail_electric ship" speed="13.89" length="8.96" shape="1004.00,2746.43 1006.22,2747.91 1007.90,2749.51 1009.04,2751.22 1009.64,2753.04"/>
    </edge>
    <edge id=":node_00x10_0" function="internal">
        <lane id=":node_00x10_0_0" index="0" disallow="tram rail_urban rail rail_electric ship" speed="13.89" length="12.16" shape="1027.36,2855.10 1027.84,2858.39 1027.93,2861.16 1027.55,2863.90 1026.60,2867.06"/>
    </edge>
    <edge id=":node_00x10_1" function="internal">
        <lane id=":node_00x10_1_0" index="0" disallow="tram rail_urban rail rail_electric ship" speed="13.89" length="12.50" shape="1027.36,2855.10 1027.48,2858.74 1026.35,2861.09 1023.97,2862.15 1020.33,2861.92"/>
    </edge>
    <edge id=":node_00x10_2" function="internal">
        <lane id=":node_00x10_2_0" index="0" disallow="tram rail_urban rail rail_electric ship" speed="13.89" length="5.53" shape="1021.00,2858.68 1022.61,2858.79 1023.66,2858.32 1024.16,2857.28 1024.11,2855.67"/>
    </edge>
    <edge id=":node_00x10_3" function="internal">
        <lane id=":node_00x10_3_0" index="0" disallow="tram rail_urban rail rail_electric ship" speed="13.89" length="11.87" shape="1021.00,2858.68 1024.35,2859.83 1026.40,2861.60 1027.15,2864.01 1026.60,2867.06"/>
    </edge>
    <edge id=":node_00x10_4" function="internal">
        <lane id=":node_00x10_4_0" index="0" disallow="tram rail_urban rail rail_electric ship" speed="13.89" length="6.00" shape="1023.49,2865.95 1023.71,2864.51 1023.26,2863.37 1022.14,2862.50 1020.33,2861.92"/>
    </edge>
    <edge id=":node_00x10_5" function="internal">
        <lane id=":node_00x10_5_0" index="0" disallow="tram rail_urban rail rail_electric ship" speed="13.89" length="10.49" shape="1023.49,2865.95 1024.42,2863.05 1024.75,2860.89 1024.61,2858.69 1024.11,2855.67"/>
    </edge>
    <edge id=":node_00x11_0" function="internal">
        <lane id=":node_00x11_0_0" index="0" disallow="tram rail_urban rail rail_electric ship" speed="13.89" length="8.20" shape="978.66,3001.02 977.85,3003.31 977.40,3004.92 977.14,3006.57 976.94,3008.99"/>
    </edge>
    <edge id=":node_00x11_1" function="internal">
        <lane id=":node_00x11_1_0" index="0" disallow="tram rail_urban rail rail_electric ship" speed="13.89" length="9.85" shape="978.66,3001.02 977.42,3003.38 975.71,3004.86 973.53,3005.45 970.88,3005.16"/>
    </edge>
    <edge id=":node_00x11_2" function="internal">
        <lane id=":node_00x11_2_0" index="0" disallow="tram rail_urban rail rail_electric ship" speed="13.89" length="4.89" shape="971.69,3001.96 973.01,3002.11 974.09,3001.81 974.94,3001.08 975.55,2999.91"/>
    </edge>
    <edge id=":node_00x11_3" function="internal">
        <lane id=":node_00x11_3_0" index="0" disallow="tram rail_urban rail rail_electric ship" speed="13.89" length="9.66" shape="971.69,3001.96 974.14,3002.94 975.83,3004.44 976.77,3006.46 976.94,3008.99"/>
    </edge>
    <edge id=":node_00x11_4" function="internal">
        <lane id=":node_00x11_4_0" index="0" disallow="tram rail_urban rail rail_electric ship" speed="13.89" length="5.00" shape="973.65,3008.75 973.56,3007.46 973.06,3006.44 972.17,3005.67 970.88,3005.16"/>
    </edge>
    <edge id=":node_00x11_5" function="internal">
        <lane id=":node_00x11_5_0" index="0" disallow="tram rail_urban rail rail_electric ship" speed="13.89" length="9.10" shape="973.65,3008.75 973.87,3006.06 974.15,3004.23 974.66,3002.45 975.55,2999.91"/>
    </edge>
    <edge id=":node_00x12_0" function="internal">
        <lane id=":node_00x12_0_0" index="0" disallow="tram rail_urban rail rail_electric ship" speed="13.89" length="5.45" shape="964.70,3158.79 964.00,3157.81 962.99,3157.10 961.68,3156.66 960.06,3156.50"/>
    </edge>
    <edge id=":node_00x12_1" function="internal">
        <lane id=":node_00x12_1_0" index="0" disallow="tram rail_urban rail rail_electric ship" speed="13.89" length="8.83" shape="964.70,3158.79 963.64,3156.42 963.19,3154.67 963.15,3152.85 963.33,3150.24"/>
    </edge>
    <edge id=":node_00x12_2" function="internal">
        <lane id=":node_00x12_2_0" index="0" disallow="tram rail_urban rail rail_electric ship" speed="13.89" length="7.08" shape="966.63,3150.48 966.47,3152.58 966.48,3154.04 966.82,3155.44 967.66,3157.34"/>
    </edge>
    <edge id=":node_00x12_3" function="internal">
        <lane id=":node_00x12_3_0" index="0" disallow="tram rail_urban rail rail_electric ship" speed="13.89" length="10.03" shape="966.63,3150.48 966.05,3153.15 964.76,3155.04 962.76,3156.16 960.06,3156.50"/>
    </edge>
    <edge id=":node_00x12_4" function="internal">
        <lane id=":node_00x12_4_0" index="0" disallow="tram rail_urban rail rail_electric ship" speed="13.89" length="4.93" shape="960.11,3153.20 961.44,3153.03 962.42,3152.48 963.05,3151.55 963.33,3150.24"/>
    </edge>
    <edge id=":node_00x12_5" function="internal">
        <lane id=":node_00x12_5_0" index="0" disallow="tram rail_urban rail rail_electric ship" speed="13.89" length="9.09" shape="960.11,3153.20 962.67,3153.49 964.79,3154.28 966.45,3155.56 967.66,3157.34"/>
    </edge>
    <edge id=":node_00x13_0" function="internal">
        <lane id=":node_00x13_0_0" index="0" disallow="tram rail_urban rail rail_electric ship" speed="13.89" length="5.03" shape="1034.11,3297.76 1033.07,3297.04 1031.95,3296.77 1030.76,3296.94 1029.49,3297.56"/>
    </edge>
    <edge id=":node_00x13_1" function="internal">
        <lane id=":node_00x13_1_0" index="0" disallow="tram rail_urban rail rail_electric ship" speed="13.89" length="8.97" shape="1034.11,3297.76 1032.20,3295.92 1031.01,3294.52 1030.07,3292.95 1028.89,3290.57"/>
    </edge>
    <edge id=":node_00x13_2" function="internal">
        <lane id=":node_00x13_2_0" index="0" disallow="tram rail_urban rail rail_electric ship" speed="13.89" length="7.76" shape="1031.86,3289.13 1032.88,3291.19 1033.69,3292.55 1034.71,3293.75 1036.36,3295.34"/>
    </edge>
    <edge id=":node_00x13_3" function="internal">
        <lane id=":node_00x13_3_0" index="0" disallow="tram rail_urban rail rail_electric ship" speed="13.89" length="9.75" shape="1031.86,3289.13 1032.67,3291.63 1032.55,3293.87 1031.49,3295.85 1029.49,3297.56"/>
    </edge>
    <edge id=":node_00x13_4" function="internal">
        <lane id=":node_00x13_4_0" index="0" disallow="tram rail_urban rail rail_electric ship" speed="13.89" length="4.86" shape="1027.71,3294.78 1028.71,3293.93 1029.24,3292.94 1029.30,3291.82 1028.89,3290.57"/>
    </edge>
    <edge id=":node_00x13_5" function="internal">
        <lane id=":node_00x13_5_0" index="0" disallow="tram rail_urban rail rail_electric ship" speed="13.89" length="9.44" shape="1027.71,3294.78 1030.04,3293.67 1032.26,3293.39 1034.37,3293.95 1036.36,3295.34"/>
    </edge>
    <edge id=":node_00x14_0" function="internal">
        <lane id=":node_00x14_0_0" index="0" disallow="tram rail_urban rail rail_electric ship" speed="13.89" length="5.08" shape="1153.16,3409.21 1152.03,3408.38 1150.92,3408.13 1149.84,3408.47 1148.78,3409.39"/>
    </edge>
    <edge id=":node_00x14_1" function="internal">
        <lane id=":node_00x14_1_0" index="0" disallow="tram rail_urban rail rail_electric ship" speed="13.89" length="9.55" shape="1153.16,3409.21 1146.27,3402.60"/>
    </edge>
    <edge id=":node_00x14_2" function="internal">
        <lane id=":node_00x14_2_0" index="0" disallow="tram rail_urban rail rail_electric ship" speed="13.89" length="9.63" shape="1148.53,3400.19 1155.48,3406.86"/>
    </edge>
    <edge id=":node_00x14_3" function="internal">
        <lane id=":node_00x14_3_0" index="0" disallow="tram rail_urban rail rail_electric ship" speed="13.89" length="10.40" shape="1148.53,3400.19 1150.24,3402.36 1150.86,3404.61 1150.37,3406.96 1148.78,3409.39"/>
    </edge>
    <edge id=":node_00x14_4" function="internal">
        <lane id=":node_00x14_4_0" index="0" disallow="tram rail_urban rail rail_electric ship" speed="13.89" length="5.24" shape="1146.28,3407.24 1147.11,3405.99 1147.38,3404.80 1147.11,3403.67 1146.27,3402.60"/>
    </edge>
    <edge id=":node_00x14_5" function="internal">
        <lane id=":node_00x14_5_0" index="0" disallow="tram rail_urban rail rail_electric ship" speed="13.89" length="10.66" shape="1146.28,3407.24 1148.50,3405.30 1150.78,3404.59 1153.10,3405.11 1155.48,3406.86"/>
    </edge>
    <edge id=":node_00x15_0" function="internal">
        <lane id=":node_00x15_0_0" index="0" disallow="tram rail_urban rail rail_electric ship" speed="13.89" length="5.36" shape="1269.71,3523.81 1268.49,3522.88 1267.37,3522.66 1266.33,3523.15 1265.38,3524.36"/>
    </edge>
    <edge id=":node_00x15_1" function="internal">
        <lane id=":node_00x15_1_0" index="0" disallow="tram rail_urban rail rail_electric ship" speed="13.89" length="9.76" shape="1269.71,3523.81 1262.82,3516.90"/>
    </edge>
    <edge id=":node_00x15_2" function="internal">
        <lane id=":node_00x15_2_0" index="0" disallow="tram rail_urban rail rail_electric ship" speed="13.89" length="9.82" shape="1265.13,3514.54 1272.06,3521.49"/>
    </edge>
    <edge id=":node_00x15_3" function="internal">
        <lane id=":node_00x15_3_0" index="0" disallow="tram rail_urban rail rail_electric ship" speed="13.89" length="10.64" shape="1265.13,3514.54 1266.56,3516.55 1267.08,3518.85 1266.69,3521.46 1265.38,3524.36"/>
    </edge>
    <edge id=":node_00x15_4" function="internal">
        <lane id=":node_00x15_4_0" index="0" disallow="tram rail_urban rail rail_electric ship" speed="13.89" length="6.27" shape="1262.52,3522.71 1263.39,3520.89 1263.72,3519.31 1263.53,3517.98 1262.82,3516.90"/>
    </edge>
    <edge id=":node_00x15_5" function="internal">
        <lane id=":node_00x15_5_0" index="0" disallow="tram rail_urban rail rail_electric ship" speed="13.89" length="11.81" shape="1262.52,3522.71 1264.61,3520.05 1266.89,3518.97 1269.38,3519.45 1272.06,3521.49"/>
    </edge>
    <edge id=":node_00x16_0" function="internal">
        <lane id=":node_00x16_0_0" index="0" disallow="tram rail_urban rail rail_electric ship" speed="13.89" length="5.81" shape="1383.46,3637.88 1381.94,3637.02 1380.78,3637.01 1379.97,3637.84 1379.51,3639.52"/>
    </edge>
    <edge id=":node_00x16_1" function="internal">
        <lane id=":node_00x16_1_0" index="0" disallow="tram rail_urban rail rail_electric ship" speed="13.89" length="10.38" shape="1383.46,3637.88 1375.47,3631.25"/>
    </edge>
    <edge id=":node_00x16_2" function="internal">
        <lane id=":node_00x16_2_0" index="0" disallow="tram rail_urban rail rail_electric ship" speed="13.89" length="9.91" shape="1377.82,3628.94 1379.92,3630.99 1381.46,3632.30 1383.08,3633.50 1385.45,3635.25"/>
    </edge>
    <edge id=":node_00x16_3" function="internal">
        <lane id=":node_00x16_3_0" index="0" disallow="tram rail_urban rail rail_electric ship" speed="13.89" length="11.04" shape="1377.82,3628.94 1378.95,3630.64 1379.61,3632.97 1379.80,3635.93 1379.51,3639.52"/>
    </edge>
    <edge id=":node_00x16_4" function="internal">
        <lane id=":node_00x16_4_0" index="0" disallow="tram rail_urban rail rail_electric ship" speed="13.89" length="8.06" shape="1376.24,3639.08 1376.50,3636.27 1376.46,3634.02 1376.12,3632.35 1375.47,3631.25"/>
    </edge>
    <edge id=":node_00x16_5" function="internal">
        <lane id=":node_00x16_5_0" index="0" disallow="tram rail_urban rail rail_electric ship" speed="13.89" length="13.55" shape="1376.24,3639.08 1377.31,3635.17 1379.20,3633.22 1381.91,3633.25 1385.45,3635.25"/>
    </edge>
    <edge id=":node_00x17_0" function="internal">
        <lane id=":node_00x17_0_0" index="0" disallow="tram rail_urban rail rail_electric ship" speed="13.89" length="13.79" shape="1485.40,3732.14 1492.18,3720.13"/>
    </edge>
    <edge id=":node_00x17_1" function="internal">
        <lane id=":node_00x17_1_0" index="0" disallow="tram rail_urban rail rail_electric ship" speed="13.89" length="57.82" shape="1485.40,3732.14 1474.67,3713.63 1472.43,3706.46 1478.68,3710.62 1493.43,3726.13"/>
    </edge>
    <edge id=":node_00x17_2" function="internal">
        <lane id=":node_00x17_2_0" index="0" disallow="tram rail_urban rail rail_electric ship" speed="13.89" length="19.91" shape="1490.97,3728.33 1485.89,3722.99 1483.74,3721.56 1484.51,3724.03 1488.21,3730.40"/>
    </edge>
    <edge id=":node_00x17_3" function="internal">
        <lane id=":node_00x17_3_0" index="0" disallow="tram rail_urban rail rail_electric ship" speed="13.89" length="8.29" shape="1490.97,3728.33 1492.18,3720.13"/>
    </edge>
    <edge id=":node_00x17_4" function="internal">
        <lane id=":node_00x17_4_0" index="0" disallow="tram rail_urban rail rail_electric ship" speed="13.89" length="9.50" shape="1494.17,3717.50 1495.11,3719.50 1494.01,3721.59 1492.81,3723.79 1493.43,3726.13"/>
    </edge>
    <edge id=":node_00x17_5" function="internal">
        <lane id=":node_00x17_5_0" index="0" disallow="tram rail_urban rail rail_electric ship" speed="13.89" length="15.19" shape="1494.17,3717.50 1494.55,3720.19 1491.70,3723.49 1488.59,3727.02 1488.21,3730.40"/>
    </edge>
    <edge id=":node_00x18_0" function="internal">
        <lane id=":node_00x18_0_0" index="0" disallow="tram rail_urban rail rail_electric ship" speed="13.89" length="5.54" shape="1535.34,3783.98 1535.93,3778.48"/>
    </edge>
    <edge id=":node_00x18_1" function="internal">