<?xml version='1.0' encoding='UTF-8'?>
<nodes xmlns:xsi="http://www.w3.org/2001/XMLSchema-instance" version="0.27" xsi:noNamespaceSchemaLocation="http://sumo.dlr.de/xsd/edges_file.xsd"><node avg_slowdown_ratio="0.71382289417" id="node_12x10" junction="True" old_x="1200.0" old_y="1000.0" type="right_before_left" weight_num="4.0" weight_sum="2.85529157668" x="3053.83210417" x_displacement_sum="1853.83210417" y="1299.98654213" y_displacement_sum="299.986542125" />
    <node avg_slowdown_ratio="0.711663066955" id="node_12x11" junction="True" old_x="1200.0" old_y="1100.0" type="right_before_left" weight_num="4.0" weight_sum="2.84665226782" x="3050.58331962" x_displacement_sum="1850.58331962" y="2340.65673919" y_displacement_sum="1240.65673919" />
    <node avg_slowdown_ratio="0.710043196545" id="node_10x08" junction="True" old_x="1000.0" old_y="800.0" type="right_before_left" weight_num="4.0" weight_sum="2.84017278618" x="681.093747567" x_displacement_sum="-318.906252433" y="-1151.3383658" y_displacement_sum="-1951.3383658" />
    <node avg_slowdown_ratio="0.674046076315" id="node_11x11" junction="True" old_x="1100.0" old_y="1100.0" type="right_before_left" weight_num="4.0" weight_sum="2.69618430526" x="2233.78315097" x_displacement_sum="1133.78315097" y="2422.6512739" y_displacement_sum="1322.6512739" />
    <node avg_slowdown_ratio="0.65172786177" id="node_10x07" junction="True" old_x="1000.0" old_y="700.0" type="right_before_left" weight_num="4.0" weight_sum="2.60691144708" x="556.210057638" x_displacement_sum="-443.789942362" y="-2035.20664268" y_displacement_sum="-2735.20664268" />
    <node avg_slowdown_ratio="0.649028077753" id="node_10x09" junction="True" old_x="1000.0" old_y="900.0" type="right_before_left" weight_num="4.0" weight_sum="2.59611231101" x="905.454689018" x_displacement_sum="-94.545310982" y="-250.2042938" y_displacement_sum="-1150.2042938" />
    <node avg_slowdown_ratio="0.645968322535" id="node_11x10" junction="True" old_x="1100.0" old_y="1000.0" type="right_before_left" weight_num="4.0" weight_sum="2.58387329014" x="2148.81672544" x_displacement_sum="1048.81672544" y="1222.99634842" y_displacement_sum="222.99634842" />
    <node avg_slowdown_ratio="0.641828653707" id="node_12x12" junction="True" old_x="1200.0" old_y="1200.0" type="right_before_left" weight_num="4.0" weight_sum="2.56731461483" x="2836.0802615" x_displacement_sum="1636.0802615" y="3250.63817543" y_displacement_sum="2050.63817543" />
    <node avg_slowdown_ratio="0.640568754497" id="node_11x12" junction="True" old_x="1100.0" old_y="1200.0" type="right_before_left" weight_num="4.0" weight_sum="2.56227501799" x="2209.19927348" x_displacement_sum="1109.19927348" y="3406.90399617" y_displacement_sum="2206.90399617" />
    <node avg_slowdown_ratio="0.638048956085" id="node_12x09" junction="True" old_x="1200.0" old_y="900.0" type="right_before_left" weight_num="4.0" weight_sum="2.55219582434" x="3036.58022193" x_displacement_sum="1836.58022193" y="93.014334308" y_displacement_sum="-806.985665692" />
    <node avg_slowdown_ratio="0.632109431245" id="node_10x11" junction="True" old_x="1000.0" old_y="1100.0" type="right_before_left" weight_num="4.0" weight_sum="2.52843772498" x="1186.69859971" x_displacement_sum="186.698599706" y="2383.32855504" y_displacement_sum="1283.32855504" />
    <node avg_slowdown_ratio="0.628329733622" id="node_08x07" junction="True" old_x="800.0" old_y="700.0" type="right_before_left" weight_num="4.0" weight_sum="2.51331893449" x="-1279.90796965" x_displacement_sum="-2079.90796965" y="-1808.2018142" y_displacement_sum="-2508.2018142" />
    <node avg_slowdown_ratio="0.624730021598" id="node_10x10" junction="True" old_x="1000.0" old_y="1000.0" type="right_before_left" weight_num="4.0" weight_sum="2.49892008639" x="1131.27048619" x_displacement_sum="131.270486192" y="1123.47928242" y_displacement_sum="123.479282417" />
    <node avg_slowdown_ratio="0.621310295175" id="node_09x07" junction="True" old_x="900.0" old_y="700.0" type="right_before_left" weight_num="4.0" weight_sum="2.4852411807" x="-466.49808017" x_displacement_sum="-1366.49808017" y="-1994.78333944" y_displacement_sum="-2694.78333944" />
    <node avg_slowdown_ratio="0.620230381567" id="node_09x08" junction="True" old_x="900.0" old_y="800.0" type="right_before_left" weight_num="4.0" weight_sum="2.48092152627" x="-491.10059439" x_displacement_sum="-1391.10059439" y="-1345.95263309" y_displacement_sum="-2145.95263309" />
    <node avg_slowdown_ratio="0.613750899927" id="node_13x10" junction="True" old_x="1300.0" old_y="1000.0" type="right_before_left" weight_num="4.0" weight_sum="2.45500359971" x="3851.80609138" x_displacement_sum="2551.80609138" y="1304.88648253" y_displacement_sum="304.886482528" />
    <node avg_slowdown_ratio="0.613390928728" id="node_10x12" junction="True" old_x="1000.0" old_y="1200.0" type="right_before_left" weight_num="4.0" weight_sum="2.45356371491" x="1124.92747735" x_displacement_sum="124.927477349" y="3561.74048019" y_displacement_sum="2361.74048019" />
    <node avg_slowdown_ratio="0.613030957525" id="node_08x08" junction="True" old_x="800.0" old_y="800.0" type="right_before_left" weight_num="4.0" weight_sum="2.4521238301" x="-1464.71610996" x_displacement_sum="-2264.71610996" y="-1347.28215747" y_displacement_sum="-2147.28215747" />
    <node avg_slowdown_ratio="0.61069114471" id="node_11x08" junction="True" old_x="1100.0" old_y="800.0" type="right_before_left" weight_num="4.0" weight_sum="2.44276457884" x="1831.24728053" x_displacement_sum="731.247280531" y="-957.8251079" y_displacement_sum="-1757.8251079" />
    <node avg_slowdown_ratio="0.6094312455" id="node_11x09" junction="True" old_x="1100.0" old_y="900.0" type="right_before_left" weight_num="4.0" weight_sum="2.437724982" x="2014.14987889" x_displacement_sum="914.149878889" y="-2.410765171" y_displacement_sum="-902.410765171" />
    <node avg_slowdown_ratio="0.60781137509" id="node_07x09" junction="True" old_x="700.0" old_y="900.0" type="right_before_left" weight_num="4.0" weight_sum="2.43124550036" x="-2275.75133262" x_displacement_sum="-2975.75133262" y="-355.42650098" y_displacement_sum="-1255.42650098" />
    <node avg_slowdown_ratio="0.60637149028" id="node_07x08" junction="True" old_x="700.0" old_y="800.0" type="right_before_left" weight_num="4.0" weight_sum="2.42548596112" x="-2044.63310464" x_displacement_sum="-2744.63310464" y="-1213.54127538" y_displacement_sum="-2013.54127538" />
    <node avg_slowdown_ratio="0.60025197984" id="node_13x11" junction="True" old_x="1300.0" old_y="1100.0" type="right_before_left" weight_num="4.0" weight_sum="2.40100791936" x="3800.68471684" x_displacement_sum="2500.68471684" y="2242.77878013" y_displacement_sum="1142.77878013" />
    <node avg_slowdown_ratio="0.59521238301" id="node_09x11" junction="True" old_x="900.0" old_y="1100.0" type="right_before_left" weight_num="4.0" weight_sum="2.38084953204" x="-17.469517706" x_displacement_sum="-917.469517706" y="2296.8424503" y_displacement_sum="1196.8424503" />
    <node avg_slowdown_ratio="0.589632829375" id="node_09x12" junction="True" old_x="900.0" old_y="1200.0" type="right_before_left" weight_num="4.0" weight_sum="2.3585313175" x="61.333667805" x_displacement_sum="-838.666332195" y="3605.03330706" y_displacement_sum="2405.03330706" />
    <node avg_slowdown_ratio="0.589452843772" id="node_08x09" junction="True" old_x="800.0" old_y="900.0" type="right_before_left" weight_num="4.0" weight_sum="2.35781137509" x="-1506.78159218" x_displacement_sum="-2306.78159218" y="-482.35701382" y_displacement_sum="-1382.35701382" />
    <node avg_slowdown_ratio="0.58747300216" id="node_12x08" junction="True" old_x="1200.0" old_y="800.0" type="right_before_left" weight_num="4.0" weight_sum="2.34989200864" x="2928.90594367" x_displacement_sum="1728.90594367" y="-830.5748125" y_displacement_sum="-1630.5748125" />
    <node avg_slowdown_ratio="0.58603311735" id="node_08x13" junction="True" old_x="800.0" old_y="1300.0" type="right_before_left" weight_num="4.0" weight_sum="2.3441324694" x="-1000.75036932" x_displacement_sum="-1800.75036932" y="4215.32250725" y_displacement_sum="2915.32250725" />
    <node avg_slowdown_ratio="0.585673146147" id="node_07x13" junction="True" old_x="700.0" old_y="1300.0" type="right_before_left" weight_num="4.0" weight_sum="2.34269258459" x="-1740.88989318" x_displacement_sum="-2440.88989318" y="3783.30113108" y_displacement_sum="2483.30113108" />
    <node avg_slowdown_ratio="0.585673146147" id="node_08x11" junction="True" old_x="800.0" old_y="1100.0" type="right_before_left" weight_num="4.0" weight_sum="2.34269258459" x="-1452.02623937" x_displacement_sum="-2252.02623937" y="2230.31219967" y_displacement_sum="1130.31219967" />
    <node avg_slowdown_ratio="0.583873290138" id="node_14x10" junction="True" old_x="1400.0" old_y="1000.0" type="right_before_left" weight_num="4.0" weight_sum="2.33549316055" x="4543.18874078" x_displacement_sum="3143.18874078" y="1296.42527556" y_displacement_sum="296.425275562" />
    <node avg_slowdown_ratio="0.58279337653" id="node_07x11" junction="True" old_x="700.0" old_y="1100.0" type="right_before_left" weight_num="4.0" weight_sum="2.33117350612" x="-2404.48826605" x_displacement_sum="-3104.48826605" y="2152.25945514" y_displacement_sum="1052.25945514" />
    <node avg_slowdown_ratio="0.582253419725" id="node_09x10" junction="True" old_x="900.0" old_y="1000.0" type="right_before_left" weight_num="4.0" weight_sum="2.3290136789" x="-181.90929272" x_displacement_sum="-1081.90929272" y="871.994480905" y_displacement_sum="-128.005519095" />
    <node avg_slowdown_ratio="0.581173506122" id="node_11x13" junction="True" old_x="1100.0" old_y="1300.0" type="right_before_left" weight_num="4.0" weight_sum="2.32469402449" x="1972.0597081" x_displacement_sum="872.059708104" y="4195.07175547" y_displacement_sum="2895.07175547" />
    <node avg_slowdown_ratio="0.580453563715" id="node_08x10" junction="True" old_x="800.0" old_y="1000.0" type="right_before_left" weight_num="4.0" weight_sum="2.32181425486" x="-1506.30772775" x_displacement_sum="-2306.30772775" y="839.752601355" y_displacement_sum="-160.247398645" />
    <node avg_slowdown_ratio="0.57667386609" id="node_06x13" junction="True" old_x="600.0" old_y="1300.0" type="right_before_left" weight_num="4.0" weight_sum="2.30669546436" x="-2063.31418035" x_displacement_sum="-2663.31418035" y="3247.83124524" y_displacement_sum="1947.83124524" />
    <node avg_slowdown_ratio="0.576313894887" id="node_10x13" junction="True" old_x="1000.0" old_y="1300.0" type="right_before_left" weight_num="4.0" weight_sum="2.30525557955" x="1035.8617489" x_displacement_sum="35.8617489005" y="4386.90838703" y_displacement_sum="3086.90838703" />
    <node avg_slowdown_ratio="0.571634269255" id="node_07x10" junction="True" old_x="700.0" old_y="1000.0" type="right_before_left" weight_num="4.0" weight_sum="2.28653707702" x="-2377.44475458" x_displacement_sum="-3077.44475458" y="897.756912206" y_displacement_sum="-102.243087794" />
    <node avg_slowdown_ratio="0.570914326852" id="node_11x07" junction="True" old_x="1100.0" old_y="700.0" type="right_before_left" weight_num="4.0" weight_sum="2.28365730741" x="1699.21099" x_displacement_sum="599.210989998" y="-1881.79984221" y_displacement_sum="-2581.79984221" />
    <node avg_slowdown_ratio="0.56119510439" id="node_15x11" junction="True" old_x="1500.0" old_y="1100.0" type="right_before_left" weight_num="4.0" weight_sum="2.24478041756" x="4903.14316658" x_displacement_sum="3403.14316658" y="1839.35620217" y_displacement_sum="739.356202169" />
    <node avg_slowdown_ratio="0.560655147588" id="node_08x12" junction="True" old_x="800.0" old_y="1200.0" type="right_before_left" weight_num="4.0" weight_sum="2.24262059035" x="-1286.90748423" x_displacement_sum="-2086.90748423" y="3458.63143726" y_displacement_sum="2258.63143726" />
    <node avg_slowdown_ratio="0.55957523398" id="node_09x09" junction="True" old_x="900.0" old_y="900.0" type="right_before_left" weight_num="4.0" weight_sum="2.23830093592" x="-363.95273379" x_displacement_sum="-1263.95273379" y="-408.7472281" y_displacement_sum="-1308.7472281" />
    <node avg_slowdown_ratio="0.559035277178" id="node_06x11" junction="True" old_x="600.0" old_y="1100.0" type="right_before_left" weight_num="4.0" weight_sum="2.23614110871" x="-2827.91306973" x_displacement_sum="-3427.91306973" y="2039.03454596" y_displacement_sum="939.034545964" />
    <node avg_slowdown_ratio="0.558135349172" id="node_13x07" junction="True" old_x="1300.0" old_y="700.0" type="right_before_left" weight_num="4.0" weight_sum="2.23254139669" x="3617.1674519" x_displacement_sum="2317.1674519" y="-1624.44988401" y_displacement_sum="-2324.44988401" />
    <node avg_slowdown_ratio="0.55813534917" id="node_13x09" junction="True" old_x="1300.0" old_y="900.0" type="right_before_left" weight_num="4.0" weight_sum="2.23254139668" x="3833.19686047" x_displacement_sum="2533.19686047" y="157.562725632" y_displacement_sum="-742.437274368" />
    <node avg_slowdown_ratio="0.55471562275" id="node_11x06" junction="True" old_x="1100.0" old_y="600.0" type="right_before_left" weight_num="4.0" weight_sum="2.218862491" x="1617.56579175" x_displacement_sum="517.56579175" y="-2658.94878541" y_displacement_sum="-3258.94878541" />
    <node avg_slowdown_ratio="0.551835853133" id="node_06x12" junction="True" old_x="600.0" old_y="1200.0" type="right_before_left" weight_num="4.0" weight_sum="2.20734341253" x="-2552.64573671" x_displacement_sum="-3152.64573671" y="2692.51803183" y_displacement_sum="1492.51803183" />
    <node avg_slowdown_ratio="0.550755939528" id="node_13x12" junction="True" old_x="1300.0" old_y="1200.0" type="right_before_left" weight_num="4.0" weight_sum="2.20302375811" x="3534.53442959" x_displacement_sum="2234.53442959" y="2919.04389477" y_displacement_sum="1719.04389477" />
    <node avg_slowdown_ratio="0.547876169907" id="node_12x13" junction="True" old_x="1200.0" old_y="1300.0" type="right_before_left" weight_num="4.0" weight_sum="2.19150467963" x="2588.53943208" x_displacement_sum="1388.53943208" y="4011.04633512" y_displacement_sum="2711.04633512" />
    <node avg_slowdown_ratio="0.54247660187" id="node_09x13" junction="True" old_x="900.0" old_y="1300.0" type="right_before_left" weight_num="4.0" weight_sum="2.16990640748" x="100.113051885" x_displacement_sum="-799.886948115" y="4415.83640849" y_displacement_sum="3115.83640849" />
    <node avg_slowdown_ratio="0.541936645067" id="node_13x13" junction="True" old_x="1300.0" old_y="1300.0" type="right_before_left" weight_num="4.0" weight_sum="2.16774658027" x="3254.48959736" x_displacement_sum="1954.48959736" y="3736.8720546" y_displacement_sum="2436.8720546" />
    <node avg_slowdown_ratio="0.541216702665" id="node_07x12" junction="True" old_x="700.0" old_y="1200.0" type="right_before_left" weight_num="4.0" weight_sum="2.16486681066" x="-2202.80302352" x_displacement_sum="-2902.80302352" y="3052.61100281" y_displacement_sum="1852.61100281" />
    <node avg_slowdown_ratio="0.537796976243" id="node_10x05" junction="True" old_x="1000.0" old_y="500.0" type="right_before_left" weight_num="4.0" weight_sum="2.15118790497" x="700.700374009" x_displacement_sum="-299.299625991" y="-2967.09296902" y_displacement_sum="-3467.09296902" />
    <node avg_slowdown_ratio="0.53437724982" id="node_10x06" junction="True" old_x="1000.0" old_y="600.0" type="right_before_left" weight_num="4.0" weight_sum="2.13750899928" x="548.224885344" x_displacement_sum="-451.775114656" y="-2575.83841683" y_displacement_sum="-3175.83841683" />
    <node avg_slowdown_ratio="0.533837293015" id="node_15x12" junction="True" old_x="1500.0" old_y="1200.0" type="right_before_left" weight_num="4.0" weight_sum="2.13534917206" x="4748.30214513" x_displacement_sum="3248.30214513" y="2380.50844082" y_displacement_sum="1180.50844082" />
    <node avg_slowdown_ratio="0.531137508998" id="node_06x10" junction="True" old_x="600.0" old_y="1000.0" type="right_before_left" weight_num="4.0" weight_sum="2.12455003599" x="-2932.74979012" x_displacement_sum="-3532.74979012" y="906.111684576" y_displacement_sum="-93.8883154236" />
    <node avg_slowdown_ratio="0.528977681788" id="node_12x04" junction="True" old_x="1200.0" old_y="400.0" type="right_before_left" weight_num="4.0" weight_sum="2.11591072715" x="2133.76472702" x_displacement_sum="933.764727019" y="-2796.9872898" y_displacement_sum="-3196.9872898" />
    <node avg_slowdown_ratio="0.526997840175" id="node_11x14" junction="True" old_x="1100.0" old_y="1400.0" type="right_before_left" weight_num="4.0" weight_sum="2.1079913607" x="1757.29040542" x_displacement_sum="657.29040542" y="4816.80072129" y_displacement_sum="3416.80072129" />
    <node avg_slowdown_ratio="0.52609791217" id="node_13x08" junction="True" old_x="1300.0" old_y="800.0" type="right_before_left" weight_num="4.0" weight_sum="2.10439164868" x="3713.38855671" x_displacement_sum="2413.38855671" y="-786.89827592" y_displacement_sum="-1586.89827592" />
    <node avg_slowdown_ratio="0.52051835853" id="node_06x08" junction="True" old_x="600.0" old_y="800.0" type="right_before_left" weight_num="4.0" weight_sum="2.08207343412" x="-2597.63732092" x_displacement_sum="-3197.63732092" y="-939.25503831" y_displacement_sum="-1739.25503831" />
    <node avg_slowdown_ratio="0.519438444923" id="node_14x07" junction="True" old_x="1400.0" old_y="700.0" type="right_before_left" weight_num="4.0" weight_sum="2.07775377969" x="4340.63326354" x_displacement_sum="2940.63326354" y="-1495.24970127" y_displacement_sum="-2195.24970127" />
    <node avg_slowdown_ratio="0.519078473723" id="node_14x08" junction="True" old_x="1400.0" old_y="800.0" type="right_before_left" weight_num="4.0" weight_sum="2.07631389489" x="4512.52815683" x_displacement_sum="3112.52815683" y="-670.59238557" y_displacement_sum="-1470.59238557" />
    <node avg_slowdown_ratio="0.517818574513" id="node_13x06" junction="True" old_x="1300.0" old_y="600.0" type="right_before_left" weight_num="4.0" weight_sum="2.07127429805" x="3436.63447895" x_displacement_sum="2136.63447895" y="-2276.08390488" y_displacement_sum="-2876.08390488" />
    <node avg_slowdown_ratio="0.51745860331" id="node_05x11" junction="True" old_x="500.0" old_y="1100.0" type="right_before_left" weight_num="4.0" weight_sum="2.06983441324" x="-2891.79501394" x_displacement_sum="-3391.79501394" y="1814.36631526" y_displacement_sum="714.36631526" />
    <node avg_slowdown_ratio="0.516918646507" id="node_14x11" junction="True" old_x="1400.0" old_y="1100.0" type="right_before_left" weight_num="4.0" weight_sum="2.06767458603" x="4409.39844244" x_displacement_sum="3009.39844244" y="1996.91225204" y_displacement_sum="896.912252043" />
    <node avg_slowdown_ratio="0.514938804897" id="node_14x12" junction="True" old_x="1400.0" old_y="1200.0" type="right_before_left" weight_num="4.0" weight_sum="2.05975521959" x="4200.64996981" x_displacement_sum="2800.64996981" y="2641.98828138" y_displacement_sum="1441.98828138" />
    <node avg_slowdown_ratio="0.513138948885" id="node_15x10" junction="True" old_x="1500.0" old_y="1000.0" type="right_before_left" weight_num="4.0" weight_sum="2.05255579554" x="5003.8693662" x_displacement_sum="3503.8693662" y="1221.31699047" y_displacement_sum="221.316990473" />
    <node avg_slowdown_ratio="0.508999280057" id="node_12x07" junction="True" old_x="1200.0" old_y="700.0" type="right_before_left" weight_num="4.0" weight_sum="2.03599712023" x="2810.07240093" x_displacement_sum="1610.07240093" y="-1783.61008775" y_displacement_sum="-2483.61008775" />
    <node avg_slowdown_ratio="0.505579553635" id="node_11x04" junction="True" old_x="1100.0" old_y="400.0" type="right_before_left" weight_num="4.0" weight_sum="2.02231821454" x="1456.16856197" x_displacement_sum="356.168561972" y="-2950.40790715" y_displacement_sum="-3350.40790715" />
    <node avg_slowdown_ratio="0.50485961123" id="node_12x06" junction="True" old_x="1200.0" old_y="600.0" type="right_before_left" weight_num="4.0" weight_sum="2.01943844492" x="2639.71935906" x_displacement_sum="1439.71935906" y="-2545.95013125" y_displacement_sum="-3145.95013125" />
    <node avg_slowdown_ratio="0.504319654428" id="node_11x05" junction="True" old_x="1100.0" old_y="500.0" type="right_before_left" weight_num="4.0" weight_sum="2.01727861771" x="1591.14172682" x_displacement_sum="491.141726824" y="-2992.80622336" y_displacement_sum="-3492.80622336" />
    <node avg_slowdown_ratio="0.502699784018" id="node_05x12" junction="True" old_x="500.0" old_y="1200.0" type="right_before_left" weight_num="4.0" weight_sum="2.01079913607" x="-2532.82713816" x_displacement_sum="-3032.82713816" y="2270.10014746" y_displacement_sum="1070.10014746" />
    <node avg_slowdown_ratio="0.5" id="node_10x15" junction="True" old_x="1000.0" old_y="1500.0" type="right_before_left" weight_num="4.0" weight_sum="2.0" x="1024.49955446" x_displacement_sum="24.4995544615" y="5100.26093979" y_displacement_sum="3600.26093979" />
    <node avg_slowdown_ratio="0.499999999997" id="node_14x06" junction="True" old_x="1400.0" old_y="600.0" type="right_before_left" weight_num="4.0" weight_sum="1.99999999999" x="4019.11397489" x_displacement_sum="2619.11397489" y="-1899.01583718" y_displacement_sum="-2499.01583718" />
    <node avg_slowdown_ratio="0.499640028798" id="node_06x09" junction="True" old_x="600.0" old_y="900.0" type="right_before_left" weight_num="4.0" weight_sum="1.99856011519" x="-2797.48000686" x_displacement_sum="-3397.48000686" y="-190.29430527" y_displacement_sum="-1090.29430527" />
    <node avg_slowdown_ratio="0.499640028795" id="node_14x13" junction="True" old_x="1400.0" old_y="1300.0" type="right_before_left" weight_num="4.0" weight_sum="1.99856011518" x="3959.20436257" x_displacement_sum="2559.20436257" y="3509.76394252" y_displacement_sum="2209.76394252" />
    <node avg_slowdown_ratio="0.498740100792" id="node_08x06" junction="True" old_x="800.0" old_y="600.0" type="right_before_left" weight_num="4.0" weight_sum="1.99496040317" x="-1036.50544096" x_displacement_sum="-1836.50544096" y="-2188.24162472" y_displacement_sum="-2788.24162472" />
    <node avg_slowdown_ratio="0.497480201583" id="node_07x14" junction="True" old_x="700.0" old_y="1400.0" type="right_before_left" weight_num="4.0" weight_sum="1.98992080633" x="-1210.01607982" x_displacement_sum="-1910.01607982" y="4162.78877132" y_displacement_sum="2762.78877132" />
    <node avg_slowdown_ratio="0.497300215983" id="node_06x07" junction="True" old_x="600.0" old_y="700.0" type="right_before_left" weight_num="4.0" weight_sum="1.98920086393" x="-2233.31864574" x_displacement_sum="-2833.31864574" y="-1265.02316973" y_displacement_sum="-1965.02316973" />
    <node avg_slowdown_ratio="0.497120230382" id="node_08x15" junction="True" old_x="800.0" old_y="1500.0" type="right_before_left" weight_num="4.0" weight_sum="1.98848092153" x="-269.94937436" x_displacement_sum="-1069.94937436" y="4682.48259756" y_displacement_sum="3182.48259756" />
    <node avg_slowdown_ratio="0.49496040317" id="node_16x11" junction="True" old_x="1600.0" old_y="1100.0" type="right_before_left" weight_num="4.0" weight_sum="1.97984161268" x="5105.67850778" x_displacement_sum="3505.67850778" y="1704.44961072" y_displacement_sum="604.449610724" />
    <node avg_slowdown_ratio="0.493160547158" id="node_10x04" junction="True" old_x="1000.0" old_y="400.0" type="right_before_left" weight_num="4.0" weight_sum="1.97264218863" x="817.042244247" x_displacement_sum="-182.957755753" y="-3025.02210661" y_displacement_sum="-3425.02210661" />
    <node avg_slowdown_ratio="0.49226061915" id="node_05x13" junction="True" old_x="500.0" old_y="1300.0" type="right_before_left" weight_num="4.0" weight_sum="1.9690424766" x="-2030.19993117" x_displacement_sum="-2530.19993117" y="2641.36096339" y_displacement_sum="1341.36096339" />
    <node avg_slowdown_ratio="0.487580993523" id="node_13x15" junction="True" old_x="1300.0" old_y="1500.0" type="right_before_left" weight_num="4.0" weight_sum="1.95032397409" x="2808.03429847" x_displacement_sum="1508.03429847" y="4733.92648797" y_displacement_sum="3233.92648797" />
    <node avg_slowdown_ratio="0.486501079915" id="node_07x15" junction="True" old_x="700.0" old_y="1500.0" type="right_before_left" weight_num="4.0" weight_sum="1.94600431966" x="-717.61519538" x_displacement_sum="-1417.61519538" y="4231.16526661" y_displacement_sum="2731.16526661" />
    <node avg_slowdown_ratio="0.486141108712" id="node_09x06" junction="True" old_x="900.0" old_y="600.0" type="right_before_left" weight_num="4.0" weight_sum="1.94456443485" x="-258.0058866" x_displacement_sum="-1158.0058866" y="-2431.99695296" y_displacement_sum="-3031.99695296" />
    <node avg_slowdown_ratio="0.486141108712" id="node_11x15" junction="True" old_x="1100.0" old_y="1500.0" type="right_before_left" weight_num="4.0" weight_sum="1.94456443485" x="1715.79173557" x_displacement_sum="615.79173557" y="5075.02006177" y_displacement_sum="3575.02006177" />
    <node avg_slowdown_ratio="0.48614110871" id="node_07x07" junction="True" old_x="700.0" old_y="700.0" type="right_before_left" weight_num="4.0" weight_sum="1.94456443484" x="-1883.54663824" x_displacement_sum="-2583.54663824" y="-1596.30475284" y_displacement_sum="-2296.30475284" />
    <node avg_slowdown_ratio="0.4843412527" id="node_09x15" junction="True" old_x="900.0" old_y="1500.0" type="right_before_left" weight_num="4.0" weight_sum="1.9373650108" x="375.421670878" x_displacement_sum="-524.578329122" y="4925.71160676" y_displacement_sum="3425.71160676" />
    <node avg_slowdown_ratio="0.48164146868" id="node_13x05" junction="True" old_x="1300.0" old_y="500.0" type="right_before_left" weight_num="4.0" weight_sum="1.92656587472" x="3136.2657863" x_displacement_sum="1836.2657863" y="-2516.37965974" y_displacement_sum="-3016.37965974" />
    <node avg_slowdown_ratio="0.480381569475" id="node_10x14" junction="True" old_x="1000.0" old_y="1400.0" type="right_before_left" weight_num="4.0" weight_sum="1.9215262779" x="1052.19672838" x_displacement_sum="52.196728385" y="4855.4606173" y_displacement_sum="3455.4606173" />
    <node avg_slowdown_ratio="0.480201583873" id="node_04x07" junction="True" old_x="400.0" old_y="700.0" type="right_before_left" weight_num="4.0" weight_sum="1.92080633549" x="-2383.11515182" x_displacement_sum="-2783.11515182" y="-571.60155147" y_displacement_sum="-1271.60155147" />
    <node avg_slowdown_ratio="0.479301655868" id="node_09x05" junction="True" old_x="900.0" old_y="500.0" type="right_before_left" weight_num="4.0" weight_sum="1.91720662347" x="0.617794469" x_displacement_sum="-899.382205531" y="-2743.71143473" y_displacement_sum="-3243.71143473" />
    <node avg_slowdown_ratio="0.47822174226" id="node_12x15" junction="True" old_x="1200.0" old_y="1500.0" type="right_before_left" weight_num="4.0" weight_sum="1.91288696904" x="2181.1584377" x_displacement_sum="981.1584377" y="4928.43821015" y_displacement_sum="3428.43821015" />
    <node avg_slowdown_ratio="0.47660187185" id="node_05x07" junction="True" old_x="500.0" old_y="700.0" type="right_before_left" weight_num="4.0" weight_sum="1.9064074874" x="-2315.83474105" x_displacement_sum="-2815.83474105" y="-931.52593054" y_displacement_sum="-1631.52593054" />
    <node avg_slowdown_ratio="0.475881929445" id="node_08x14" junction="True" old_x="800.0" old_y="1400.0" type="right_before_left" weight_num="4.0" weight_sum="1.90352771778" x="-608.99242409" x_displacement_sum="-1408.99242409" y="4551.0985372" y_displacement_sum="3151.0985372" />
    <node avg_slowdown_ratio="0.47516198704" id="node_16x12" junction="True" old_x="1600.0" old_y="1200.0" type="right_before_left" weight_num="4.0" weight_sum="1.90064794816" x="4891.37837007" x_displacement_sum="3291.37837007" y="2137.33217069" y_displacement_sum="937.332170687" />
    <node avg_slowdown_ratio="0.473902087835" id="node_12x14" junction="True" old_x="1200.0" old_y="1400.0" type="right_before_left" weight_num="4.0" weight_sum="1.89560835134" x="2382.24004931" x_displacement_sum="1182.24004931" y="4630.44756696" y_displacement_sum="3230.44756696" />
    <node avg_slowdown_ratio="0.473902087832" id="node_13x14" junction="True" old_x="1300.0" old_y="1400.0" type="right_before_left" weight_num="4.0" weight_sum="1.89560835133" x="2992.61026912" x_displacement_sum="1692.61026912" y="4503.27704839" y_displacement_sum="3103.27704839" />
    <node avg_slowdown_ratio="0.472642188628" id="node_13x04" junction="True" old_x="1300.0" old_y="400.0" type="right_before_left" weight_num="4.0" weight_sum="1.89056875451" x="2728.59708007" x_displacement_sum="1428.59708007" y="-2421.68335442" y_displacement_sum="-2821.68335442" />
    <node avg_slowdown_ratio="0.47210223182" id="node_05x14" junction="True" old_x="500.0" old_y="1400.0" type="right_before_left" weight_num="4.0" weight_sum="1.88840892728" x="-1576.0571795" x_displacement_sum="-2076.0571795" y="3087.70704736" y_displacement_sum="1687.70704736" />
    <node avg_slowdown_ratio="0.47210223182" id="node_06x15" junction="True" old_x="600.0" old_y="1500.0" type="right_before_left" weight_num="4.0" weight_sum="1.88840892728" x="-916.94014092" x_displacement_sum="-1516.94014092" y="3756.35431286" y_displacement_sum="2256.35431286" />
    <node avg_slowdown_ratio="0.468142548597" id="node_04x11" junction="True" old_x="400.0" old_y="1100.0" type="right_before_left" weight_num="4.0" weight_sum="1.87257019439" x="-2800.33184387" x_displacement_sum="-3200.33184387" y="1524.89071396" y_displacement_sum="424.890713958" />
    <node avg_slowdown_ratio="0.467602591793" id="node_15x07" junction="True" old_x="1500.0" old_y="700.0" type="right_before_left" weight_num="4.0" weight_sum="1.87041036717" x="4709.68220136" x_displacement_sum="3209.68220136" y="-1197.42381923" y_displacement_sum="-1897.42381923" />