<?xml version='1.0' encoding='UTF-8'?>
<nodes xmlns:xsi="http://www.w3.org/2001/XMLSchema-instance" version="0.27" xsi:noNamespaceSchemaLocation="http://sumo.dlr.de/xsd/edges_file.xsd"><node avg_slowdown_ratio="0.999280057598" id="node_07x07" junction="True" old_x="700.0" old_y="700.0" type="priority" weight_num="4.0" weight_sum="3.99712023039" x="324.28363608" x_displacement_sum="-375.71636392" y="324.28363608" y_displacement_sum="-375.71636392" />
    <node avg_slowdown_ratio="0.999280057598" id="node_07x13" junction="True" old_x="700.0" old_y="1300.0" type="priority" weight_num="4.0" weight_sum="3.99712023039" x="324.283636079" x_displacement_sum="-375.716363921" y="1675.71636392" y_displacement_sum="375.71636392" />
    <node avg_slowdown_ratio="0.999280057598" id="node_13x07" junction="True" old_x="1300.0" old_y="700.0" type="priority" weight_num="4.0" weight_sum="3.99712023039" x="1675.71636392" x_displacement_sum="375.71636392" y="324.283636079" y_displacement_sum="-375.716363921" />
    <node avg_slowdown_ratio="0.999280057598" id="node_13x13" junction="True" old_x="1300.0" old_y="1300.0" type="priority" weight_num="4.0" weight_sum="3.99712023039" x="1675.71636392" x_displacement_sum="375.716363921" y="1675.71636392" y_displacement_sum="375.716363921" />
    <node avg_slowdown_ratio="0.0" id="node_00x00" junction="True" old_x="0.0" old_y="0.0" type="priority" weight_num="2.0" weight_sum="0.0" x="-155.098610507" x_displacement_sum="-155.098610507" y="-155.098610507" y_displacement_sum="-155.098610507" />
    <node avg_slowdown_ratio="0.0" id="node_00x01" junction="True" old_x="0.0" old_y="100.0" type="priority" weight_num="3.0" weight_sum="0.0" x="-183.066570915" x_displacement_sum="-183.066570915" y="-63.313566528" y_displacement_sum="-163.313566528" />
    <node avg_slowdown_ratio="0.0" id="node_00x02" junction="True" old_x="0.0" old_y="200.0" type="priority" weight_num="3.0" weight_sum="0.0" x="-215.823664618" x_displacement_sum="-215.823664618" y="31.170840001" y_displacement_sum="-168.829159999" />
    <node avg_slowdown_ratio="0.0" id="node_00x03" junction="True" old_x="0.0" old_y="300.0" type="priority" weight_num="3.0" weight_sum="0.0" x="-253.010295612" x_displacement_sum="-253.010295612" y="130.24886365" y_displacement_sum="-169.75113635" />
    <node avg_slowdown_ratio="0.0" id="node_00x04" junction="True" old_x="0.0" old_y="400.0" type="priority" weight_num="3.0" weight_sum="0.0" x="-293.117068709" x_displacement_sum="-293.117068709" y="236.080620045" y_displacement_sum="-163.919379955" />
    <node avg_slowdown_ratio="0.0" id="node_00x05" junction="True" old_x="0.0" old_y="500.0" type="priority" weight_num="3.0" weight_sum="0.0" x="-333.137515293" x_displacement_sum="-333.137515293" y="350.391020516" y_displacement_sum="-149.608979484" />
    <node avg_slowdown_ratio="0.0" id="node_00x06" junction="True" old_x="0.0" old_y="600.0" type="priority" weight_num="3.0" weight_sum="0.0" x="-368.916708198" x_displacement_sum="-368.916708198" y="473.393933254" y_displacement_sum="-126.606066746" />
    <node avg_slowdown_ratio="0.0" id="node_00x07" junction="True" old_x="0.0" old_y="700.0" type="priority" weight_num="3.0" weight_sum="0.0" x="-396.582515857" x_displacement_sum="-396.582515857" y="603.064285101" y_displacement_sum="-96.935714899" />
    <node avg_slowdown_ratio="0.0" id="node_00x08" junction="True" old_x="0.0" old_y="800.0" type="priority" weight_num="3.0" weight_sum="0.0" x="-414.41617271" x_displacement_sum="-414.41617271" y="735.79231104" y_displacement_sum="-64.2076889598" />
    <node avg_slowdown_ratio="0.0" id="node_00x09" junction="True" old_x="0.0" old_y="900.0" type="priority" weight_num="3.0" weight_sum="0.0" x="-423.485418219" x_displacement_sum="-423.485418219" y="868.420759496" y_displacement_sum="-31.5792405042" />
    <node avg_slowdown_ratio="0.0" id="node_00x10" junction="True" old_x="0.0" old_y="1000.0" type="priority" weight_num="3.0" weight_sum="0.0" x="-426.121714778" x_displacement_sum="-426.121714778" y="1000.0" y_displacement_sum="3.8546943415e-13" />
    <node avg_slowdown_ratio="0.0" id="node_00x11" junction="True" old_x="0.0" old_y="1100.0" type="priority" weight_num="3.0" weight_sum="0.0" x="-423.485418219" x_displacement_sum="-423.485418219" y="1131.5792405" y_displacement_sum="31.5792405042" />
    <node avg_slowdown_ratio="0.0" id="node_00x12" junction="True" old_x="0.0" old_y="1200.0" type="priority" weight_num="3.0" weight_sum="0.0" x="-414.41617271" x_displacement_sum="-414.41617271" y="1264.20768896" y_displacement_sum="64.2076889598" />
    <node avg_slowdown_ratio="0.0" id="node_00x13" junction="True" old_x="0.0" old_y="1300.0" type="priority" weight_num="3.0" weight_sum="0.0" x="-396.582515857" x_displacement_sum="-396.582515857" y="1396.9357149" y_displacement_sum="96.935714899" />
    <node avg_slowdown_ratio="0.0" id="node_00x14" junction="True" old_x="0.0" old_y="1400.0" type="priority" weight_num="3.0" weight_sum="0.0" x="-368.916708198" x_displacement_sum="-368.916708198" y="1526.60606675" y_displacement_sum="126.606066746" />
    <node avg_slowdown_ratio="0.0" id="node_00x15" junction="True" old_x="0.0" old_y="1500.0" type="priority" weight_num="3.0" weight_sum="0.0" x="-333.137515293" x_displacement_sum="-333.137515293" y="1649.60897948" y_displacement_sum="149.608979484" />
    <node avg_slowdown_ratio="0.0" id="node_00x16" junction="True" old_x="0.0" old_y="1600.0" type="priority" weight_num="3.0" weight_sum="0.0" x="-293.117068709" x_displacement_sum="-293.117068709" y="1763.91937996" y_displacement_sum="163.919379955" />
    <node avg_slowdown_ratio="0.0" id="node_00x17" junction="True" old_x="0.0" old_y="1700.0" type="priority" weight_num="3.0" weight_sum="0.0" x="-253.010295612" x_displacement_sum="-253.010295612" y="1869.75113635" y_displacement_sum="169.75113635" />
    <node avg_slowdown_ratio="0.0" id="node_00x18" junction="True" old_x="0.0" old_y="1800.0" type="priority" weight_num="3.0" weight_sum="0.0" x="-215.823664618" x_displacement_sum="-215.823664618" y="1968.82916" y_displacement_sum="168.829159999" />
    <node avg_slowdown_ratio="0.0" id="node_00x19" junction="True" old_x="0.0" old_y="1900.0" type="priority" weight_num="3.0" weight_sum="0.0" x="-183.066570915" x_displacement_sum="-183.066570915" y="2063.31356653" y_displacement_sum="163.313566528" />
    <node avg_slowdown_ratio="0.0" id="node_00x20" junction="True" old_x="0.0" old_y="2000.0" type="priority" weight_num="2.0" weight_sum="0.0" x="-155.098610507" x_displacement_sum="-155.098610507" y="2155.09861051" y_displacement_sum="155.098610507" />
    <node avg_slowdown_ratio="0.0" id="node_01x00" junction="True" old_x="100.0" old_y="0.0" type="priority" weight_num="3.0" weight_sum="0.0" x="-63.313566528" x_displacement_sum="-163.313566528" y="-183.066570915" y_displacement_sum="-183.066570915" />
    <node avg_slowdown_ratio="0.0" id="node_01x01" junction="True" old_x="100.0" old_y="100.0" type="priority" weight_num="4.0" weight_sum="0.0" x="-97.155150591" x_displacement_sum="-197.155150591" y="-97.155150591" y_displacement_sum="-197.155150591" />
    <node avg_slowdown_ratio="0.0" id="node_01x02" junction="True" old_x="100.0" old_y="200.0" type="priority" weight_num="4.0" weight_sum="0.0" x="-138.703147712" x_displacement_sum="-238.703147712" y="-8.971970906" y_displacement_sum="-208.971970906" />
    <node avg_slowdown_ratio="0.0" id="node_01x03" junction="True" old_x="100.0" old_y="300.0" type="priority" weight_num="4.0" weight_sum="0.0" x="-188.409639116" x_displacement_sum="-288.409639116" y="84.429943824" y_displacement_sum="-215.570056176" />
    <node avg_slowdown_ratio="0.0" id="node_01x04" junction="True" old_x="100.0" old_y="400.0" type="priority" weight_num="4.0" weight_sum="0.0" x="-244.88695565" x_displacement_sum="-344.88695565" y="187.138481367" y_displacement_sum="-212.861518633" />
    <node avg_slowdown_ratio="0.0" id="node_01x05" junction="True" old_x="100.0" old_y="500.0" type="priority" weight_num="4.0" weight_sum="0.0" x="-303.5307524" x_displacement_sum="-403.5307524" y="303.308448758" y_displacement_sum="-196.691551242" />
    <node avg_slowdown_ratio="0.0" id="node_01x06" junction="True" old_x="100.0" old_y="600.0" type="priority" weight_num="4.0" weight_sum="0.0" x="-356.310566511" x_displacement_sum="-456.310566511" y="434.528169629" y_displacement_sum="-165.471830371" />
    <node avg_slowdown_ratio="0.0" id="node_01x07" junction="True" old_x="100.0" old_y="700.0" type="priority" weight_num="4.0" weight_sum="0.0" x="-394.765437638" x_displacement_sum="-494.765437638" y="577.034117219" y_displacement_sum="-122.965882781" />
    <node avg_slowdown_ratio="0.0" id="node_01x08" junction="True" old_x="100.0" old_y="800.0" type="priority" weight_num="4.0" weight_sum="0.0" x="-415.506694508" x_displacement_sum="-515.506694508" y="722.508693653" y_displacement_sum="-77.491306347" />
    <node avg_slowdown_ratio="0.0" id="node_01x09" junction="True" old_x="100.0" old_y="900.0" type="priority" weight_num="4.0" weight_sum="0.0" x="-422.744823419" x_displacement_sum="-522.744823419" y="863.753745169" y_displacement_sum="-36.2462548315" />
    <node avg_slowdown_ratio="0.0" id="node_01x10" junction="True" old_x="100.0" old_y="1000.0" type="priority" weight_num="4.0" weight_sum="0.0" x="-423.961715062" x_displacement_sum="-523.961715062" y="1000.0" y_displacement_sum="-2.70414801662e-11" />
    <node avg_slowdown_ratio="0.0" id="node_01x11" junction="True" old_x="100.0" old_y="1100.0" type="priority" weight_num="4.0" weight_sum="0.0" x="-422.744823419" x_displacement_sum="-522.744823419" y="1136.24625483" y_displacement_sum="36.2462548312" />
    <node avg_slowdown_ratio="0.0" id="node_01x12" junction="True" old_x="100.0" old_y="1200.0" type="priority" weight_num="4.0" weight_sum="0.0" x="-415.506694508" x_displacement_sum="-515.506694508" y="1277.49130635" y_displacement_sum="77.4913063469" />
    <node avg_slowdown_ratio="0.0" id="node_01x13" junction="True" old_x="100.0" old_y="1300.0" type="priority" weight_num="4.0" weight_sum="0.0" x="-394.765437639" x_displacement_sum="-494.765437639" y="1422.96588278" y_displacement_sum="122.965882781" />
    <node avg_slowdown_ratio="0.0" id="node_01x14" junction="True" old_x="100.0" old_y="1400.0" type="priority" weight_num="4.0" weight_sum="0.0" x="-356.310566511" x_displacement_sum="-456.310566511" y="1565.47183037" y_displacement_sum="165.471830371" />
    <node avg_slowdown_ratio="0.0" id="node_01x15" junction="True" old_x="100.0" old_y="1500.0" type="priority" weight_num="4.0" weight_sum="0.0" x="-303.530752399" x_displacement_sum="-403.530752399" y="1696.69155124" y_displacement_sum="196.691551242" />
    <node avg_slowdown_ratio="0.0" id="node_01x16" junction="True" old_x="100.0" old_y="1600.0" type="priority" weight_num="4.0" weight_sum="0.0" x="-244.886955649" x_displacement_sum="-344.886955649" y="1812.86151863" y_displacement_sum="212.861518633" />
    <node avg_slowdown_ratio="0.0" id="node_01x17" junction="True" old_x="100.0" old_y="1700.0" type="priority" weight_num="4.0" weight_sum="0.0" x="-188.409639117" x_displacement_sum="-288.409639117" y="1915.57005618" y_displacement_sum="215.570056177" />
    <node avg_slowdown_ratio="0.0" id="node_01x18" junction="True" old_x="100.0" old_y="1800.0" type="priority" weight_num="4.0" weight_sum="0.0" x="-138.703147712" x_displacement_sum="-238.703147712" y="2008.97197091" y_displacement_sum="208.971970906" />
    <node avg_slowdown_ratio="0.0" id="node_01x19" junction="True" old_x="100.0" old_y="1900.0" type="priority" weight_num="4.0" weight_sum="0.0" x="-97.155150591" x_displacement_sum="-197.155150591" y="2097.15515059" y_displacement_sum="197.155150591" />
    <node avg_slowdown_ratio="0.0" id="node_01x20" junction="True" old_x="100.0" old_y="2000.0" type="priority" weight_num="3.0" weight_sum="0.0" x="-63.313566528" x_displacement_sum="-163.313566528" y="2183.06657091" y_displacement_sum="183.066570915" />
    <node avg_slowdown_ratio="0.0" id="node_02x00" junction="True" old_x="200.0" old_y="0.0" type="priority" weight_num="3.0" weight_sum="0.0" x="31.170840001" x_displacement_sum="-168.829159999" y="-215.823664618" y_displacement_sum="-215.823664618" />
    <node avg_slowdown_ratio="0.0" id="node_02x01" junction="True" old_x="200.0" old_y="100.0" type="priority" weight_num="4.0" weight_sum="0.0" x="-8.971970906" x_displacement_sum="-208.971970906" y="-138.703147712" y_displacement_sum="-238.703147712" />
    <node avg_slowdown_ratio="0.0" id="node_02x02" junction="True" old_x="200.0" old_y="200.0" type="priority" weight_num="4.0" weight_sum="0.0" x="-61.149032736" x_displacement_sum="-261.149032736" y="-61.149032736" y_displacement_sum="-261.149032736" />
    <node avg_slowdown_ratio="0.0" id="node_02x03" junction="True" old_x="200.0" old_y="300.0" type="priority" weight_num="4.0" weight_sum="0.0" x="-128.076040192" x_displacement_sum="-328.076040192" y="20.899827673" y_displacement_sum="-279.100172327" />
    <node avg_slowdown_ratio="0.0" id="node_02x04" junction="True" old_x="200.0" old_y="400.0" type="priority" weight_num="4.0" weight_sum="0.0" x="-210.250922134" x_displacement_sum="-410.250922134" y="114.827301363" y_displacement_sum="-285.172698637" />
    <node avg_slowdown_ratio="0.0" id="node_02x05" junction="True" old_x="200.0" old_y="500.0" type="priority" weight_num="4.0" weight_sum="0.0" x="-301.7783639" x_displacement_sum="-501.7783639" y="230.743630161" y_displacement_sum="-269.256369839" />
    <node avg_slowdown_ratio="0.0" id="node_02x06" junction="True" old_x="200.0" old_y="600.0" type="priority" weight_num="4.0" weight_sum="0.0" x="-386.527282526" x_displacement_sum="-586.527282526" y="375.766412139" y_displacement_sum="-224.233587861" />
    <node avg_slowdown_ratio="0.0" id="node_02x07" junction="True" old_x="200.0" old_y="700.0" type="priority" weight_num="4.0" weight_sum="0.0" x="-443.046515816" x_displacement_sum="-643.046515816" y="543.674575986" y_displacement_sum="-156.325424014" />
    <node avg_slowdown_ratio="0.0" id="node_02x08" junction="True" old_x="200.0" old_y="800.0" type="priority" weight_num="4.0" weight_sum="0.0" x="-462.075229535" x_displacement_sum="-662.075229535" y="713.148794795" y_displacement_sum="-86.8512052051" />
    <node avg_slowdown_ratio="0.0" id="node_02x09" junction="True" old_x="200.0" old_y="900.0" type="priority" weight_num="4.0" weight_sum="0.0" x="-457.454166118" x_displacement_sum="-657.454166118" y="865.092340258" y_displacement_sum="-34.9076597417" />
    <node avg_slowdown_ratio="0.0" id="node_02x10" junction="True" old_x="200.0" old_y="1000.0" type="priority" weight_num="4.0" weight_sum="0.0" x="-452.362804608" x_displacement_sum="-652.362804608" y="1000.0" y_displacement_sum="4.01939814765e-10" />
    <node avg_slowdown_ratio="0.0" id="node_02x11" junction="True" old_x="200.0" old_y="1100.0" type="priority" weight_num="4.0" weight_sum="0.0" x="-457.454166118" x_displacement_sum="-657.454166118" y="1134.90765974" y_displacement_sum="34.9076597419" />
    <node avg_slowdown_ratio="0.0" id="node_02x12" junction="True" old_x="200.0" old_y="1200.0" type="priority" weight_num="4.0" weight_sum="0.0" x="-462.075229535" x_displacement_sum="-662.075229535" y="1286.8512052" y_displacement_sum="86.8512052047" />
    <node avg_slowdown_ratio="0.0" id="node_02x13" junction="True" old_x="200.0" old_y="1300.0" type="priority" weight_num="4.0" weight_sum="0.0" x="-443.046515816" x_displacement_sum="-643.046515816" y="1456.32542401" y_displacement_sum="156.325424014" />
    <node avg_slowdown_ratio="0.0" id="node_02x14" junction="True" old_x="200.0" old_y="1400.0" type="priority" weight_num="4.0" weight_sum="0.0" x="-386.527282526" x_displacement_sum="-586.527282526" y="1624.23358786" y_displacement_sum="224.233587861" />
    <node avg_slowdown_ratio="0.0" id="node_02x15" junction="True" old_x="200.0" old_y="1500.0" type="priority" weight_num="4.0" weight_sum="0.0" x="-301.778363901" x_displacement_sum="-501.778363901" y="1769.25636984" y_displacement_sum="269.256369839" />
    <node avg_slowdown_ratio="0.0" id="node_02x16" junction="True" old_x="200.0" old_y="1600.0" type="priority" weight_num="4.0" weight_sum="0.0" x="-210.250922134" x_displacement_sum="-410.250922134" y="1885.17269864" y_displacement_sum="285.172698637" />
    <node avg_slowdown_ratio="0.0" id="node_02x17" junction="True" old_x="200.0" old_y="1700.0" type="priority" weight_num="4.0" weight_sum="0.0" x="-128.076040192" x_displacement_sum="-328.076040192" y="1979.10017233" y_displacement_sum="279.100172327" />
    <node avg_slowdown_ratio="0.0" id="node_02x18" junction="True" old_x="200.0" old_y="1800.0" type="priority" weight_num="4.0" weight_sum="0.0" x="-61.149032736" x_displacement_sum="-261.149032736" y="2061.14903274" y_displacement_sum="261.149032736" />
    <node avg_slowdown_ratio="0.0" id="node_02x19" junction="True" old_x="200.0" old_y="1900.0" type="priority" weight_num="4.0" weight_sum="0.0" x="-8.971970906" x_displacement_sum="-208.971970906" y="2138.70314771" y_displacement_sum="238.703147712" />
    <node avg_slowdown_ratio="0.0" id="node_02x20" junction="True" old_x="200.0" old_y="2000.0" type="priority" weight_num="3.0" weight_sum="0.0" x="31.170840002" x_displacement_sum="-168.829159998" y="2215.82366462" y_displacement_sum="215.823664618" />
    <node avg_slowdown_ratio="0.0" id="node_03x00" junction="True" old_x="300.0" old_y="0.0" type="priority" weight_num="3.0" weight_sum="0.0" x="130.24886365" x_displacement_sum="-169.75113635" y="-253.010295612" y_displacement_sum="-253.010295612" />
    <node avg_slowdown_ratio="0.0" id="node_03x01" junction="True" old_x="300.0" old_y="100.0" type="priority" weight_num="4.0" weight_sum="0.0" x="84.429943824" x_displacement_sum="-215.570056176" y="-188.409639116" y_displacement_sum="-288.409639116" />
    <node avg_slowdown_ratio="0.0" id="node_03x02" junction="True" old_x="300.0" old_y="200.0" type="priority" weight_num="4.0" weight_sum="0.0" x="20.899827673" x_displacement_sum="-279.100172327" y="-128.076040192" y_displacement_sum="-328.076040192" />
    <node avg_slowdown_ratio="0.0" id="node_03x03" junction="True" old_x="300.0" old_y="300.0" type="priority" weight_num="4.0" weight_sum="0.0" x="-68.118524765" x_displacement_sum="-368.118524765" y="-68.118524765" y_displacement_sum="-368.118524765" />
    <node avg_slowdown_ratio="0.0" id="node_03x04" junction="True" old_x="300.0" old_y="400.0" type="priority" weight_num="4.0" weight_sum="0.0" x="-190.456536153" x_displacement_sum="-490.456536153" y="2.757253022" y_displacement_sum="-397.242746978" />
    <node avg_slowdown_ratio="0.0" id="node_03x05" junction="True" old_x="300.0" old_y="500.0" type="priority" weight_num="4.0" weight_sum="0.0" x="-344.551475904" x_displacement_sum="-644.551475904" y="107.923796902" y_displacement_sum="-392.076203098" />
    <node avg_slowdown_ratio="0.0" id="node_03x06" junction="True" old_x="300.0" old_y="600.0" type="priority" weight_num="4.0" weight_sum="0.0" x="-499.925353027" x_displacement_sum="-799.925353027" y="275.65053939" y_displacement_sum="-324.34946061" />
    <node avg_slowdown_ratio="0.0" id="node_03x07" junction="True" old_x="300.0" old_y="700.0" type="priority" weight_num="4.0" weight_sum="0.0" x="-594.079915286" x_displacement_sum="-894.079915286" y="502.30219134" y_displacement_sum="-197.69780866" />
    <node avg_slowdown_ratio="0.0" id="node_03x08" junction="True" old_x="300.0" old_y="800.0" type="priority" weight_num="4.0" weight_sum="0.0" x="-592.466426281" x_displacement_sum="-892.466426281" y="726.340042408" y_displacement_sum="-73.6599575921" />
    <node avg_slowdown_ratio="0.0" id="node_03x09" junction="True" old_x="300.0" old_y="900.0" type="priority" weight_num="4.0" weight_sum="0.0" x="-541.905601865" x_displacement_sum="-841.905601865" y="889.484387788" y_displacement_sum="-10.5156122116" />
    <node avg_slowdown_ratio="0.0" id="node_03x10" junction="True" old_x="300.0" old_y="1000.0" type="priority" weight_num="4.0" weight_sum="0.0" x="-515.160650708" x_displacement_sum="-815.160650708" y="1000.0" y_displacement_sum="4.90715024171e-10" />
    <node avg_slowdown_ratio="0.0" id="node_03x11" junction="True" old_x="300.0" old_y="1100.0" type="priority" weight_num="4.0" weight_sum="0.0" x="-541.905601865" x_displacement_sum="-841.905601865" y="1110.51561221" y_displacement_sum="10.5156122122" />
    <node avg_slowdown_ratio="0.0" id="node_03x12" junction="True" old_x="300.0" old_y="1200.0" type="priority" weight_num="4.0" weight_sum="0.0" x="-592.466426281" x_displacement_sum="-892.466426281" y="1273.65995759" y_displacement_sum="73.6599575922" />
    <node avg_slowdown_ratio="0.0" id="node_03x13" junction="True" old_x="300.0" old_y="1300.0" type="priority" weight_num="4.0" weight_sum="0.0" x="-594.079915286" x_displacement_sum="-894.079915286" y="1497.69780866" y_displacement_sum="197.69780866" />
    <node avg_slowdown_ratio="0.0" id="node_03x14" junction="True" old_x="300.0" old_y="1400.0" type="priority" weight_num="4.0" weight_sum="0.0" x="-499.925353028" x_displacement_sum="-799.925353028" y="1724.34946061" y_displacement_sum="324.34946061" />
    <node avg_slowdown_ratio="0.0" id="node_03x15" junction="True" old_x="300.0" old_y="1500.0" type="priority" weight_num="4.0" weight_sum="0.0" x="-344.551475904" x_displacement_sum="-644.551475904" y="1892.0762031" y_displacement_sum="392.076203098" />
    <node avg_slowdown_ratio="0.0" id="node_03x16" junction="True" old_x="300.0" old_y="1600.0" type="priority" weight_num="4.0" weight_sum="0.0" x="-190.456536154" x_displacement_sum="-490.456536154" y="1997.24274698" y_displacement_sum="397.242746977" />
    <node avg_slowdown_ratio="0.0" id="node_03x17" junction="True" old_x="300.0" old_y="1700.0" type="priority" weight_num="4.0" weight_sum="0.0" x="-68.118524764" x_displacement_sum="-368.118524764" y="2068.11852477" y_displacement_sum="368.118524765" />
    <node avg_slowdown_ratio="0.0" id="node_03x18" junction="True" old_x="300.0" old_y="1800.0" type="priority" weight_num="4.0" weight_sum="0.0" x="20.899827673" x_displacement_sum="-279.100172327" y="2128.07604019" y_displacement_sum="328.076040192" />
    <node avg_slowdown_ratio="0.0" id="node_03x19" junction="True" old_x="300.0" old_y="1900.0" type="priority" weight_num="4.0" weight_sum="0.0" x="84.429943824" x_displacement_sum="-215.570056176" y="2188.40963912" y_displacement_sum="288.409639116" />
    <node avg_slowdown_ratio="0.0" id="node_03x20" junction="True" old_x="300.0" old_y="2000.0" type="priority" weight_num="3.0" weight_sum="0.0" x="130.24886365" x_displacement_sum="-169.75113635" y="2253.01029561" y_displacement_sum="253.010295612" />
    <node avg_slowdown_ratio="0.0" id="node_04x00" junction="True" old_x="400.0" old_y="0.0" type="priority" weight_num="3.0" weight_sum="0.0" x="236.080620045" x_displacement_sum="-163.919379955" y="-293.117068709" y_displacement_sum="-293.117068709" />
    <node avg_slowdown_ratio="0.0" id="node_04x01" junction="True" old_x="400.0" old_y="100.0" type="priority" weight_num="4.0" weight_sum="0.0" x="187.138481366" x_displacement_sum="-212.861518634" y="-244.88695565" y_displacement_sum="-344.88695565" />
    <node avg_slowdown_ratio="0.0" id="node_04x02" junction="True" old_x="400.0" old_y="200.0" type="priority" weight_num="4.0" weight_sum="0.0" x="114.827301363" x_displacement_sum="-285.172698637" y="-210.250922134" y_displacement_sum="-410.250922134" />
    <node avg_slowdown_ratio="0.0" id="node_04x03" junction="True" old_x="400.0" old_y="300.0" type="priority" weight_num="4.0" weight_sum="0.0" x="2.757253022" x_displacement_sum="-397.242746978" y="-190.456536153" y_displacement_sum="-490.456536153" />
    <node avg_slowdown_ratio="0.0" id="node_04x04" junction="True" old_x="400.0" old_y="400.0" type="priority" weight_num="4.0" weight_sum="0.0" x="-176.615911854" x_displacement_sum="-576.615911854" y="-176.615911854" y_displacement_sum="-576.615911854" />
    <node avg_slowdown_ratio="0.0" id="node_04x05" junction="True" old_x="400.0" old_y="500.0" type="priority" weight_num="4.0" weight_sum="0.0" x="-453.913584772" x_displacement_sum="-853.913584772" y="-125.845258489" y_displacement_sum="-625.845258489" />
    <node avg_slowdown_ratio="0.0" id="node_04x06" junction="True" old_x="400.0" old_y="600.0" type="priority" weight_num="4.0" weight_sum="0.0" x="-797.66228425" x_displacement_sum="-1197.66228425" y="64.990945837" y_displacement_sum="-535.009054163" />
    <node avg_slowdown_ratio="0.0" id="node_04x07" junction="True" old_x="400.0" old_y="700.0" type="priority" weight_num="4.0" weight_sum="0.0" x="-1004.05254478" x_displacement_sum="-1404.05254478" y="454.005358386" y_displacement_sum="-245.994641614" />
    <node avg_slowdown_ratio="0.0" id="node_04x08" junction="True" old_x="400.0" old_y="800.0" type="priority" weight_num="4.0" weight_sum="0.0" x="-902.74000663" x_displacement_sum="-1302.74000663" y="831.653047958" y_displacement_sum="31.6530479582" />
    <node avg_slowdown_ratio="0.0" id="node_04x09" junction="True" old_x="400.0" old_y="900.0" type="priority" weight_num="4.0" weight_sum="0.0" x="-688.30751737" x_displacement_sum="-1088.30751737" y="990.278701721" y_displacement_sum="90.2787017208" />
    <node avg_slowdown_ratio="0.0" id="node_04x10" junction="True" old_x="400.0" old_y="1000.0" type="priority" weight_num="4.0" weight_sum="0.0" x="-595.775294638" x_displacement_sum="-995.775294638" y="1000.0" y_displacement_sum="-3.21406901094e-10" />
    <node avg_slowdown_ratio="0.0" id="node_04x11" junction="True" old_x="400.0" old_y="1100.0" type="priority" weight_num="4.0" weight_sum="0.0" x="-688.30751737" x_displacement_sum="-1088.30751737" y="1009.72129828" y_displacement_sum="-90.2787017205" />
    <node avg_slowdown_ratio="0.0" id="node_04x12" junction="True" old_x="400.0" old_y="1200.0" type="priority" weight_num="4.0" weight_sum="0.0" x="-902.74000663" x_displacement_sum="-1302.74000663" y="1168.34695204" y_displacement_sum="-31.653047959" />
    <node avg_slowdown_ratio="0.0" id="node_04x13" junction="True" old_x="400.0" old_y="1300.0" type="priority" weight_num="4.0" weight_sum="0.0" x="-1004.05254478" x_displacement_sum="-1404.05254478" y="1545.99464161" y_displacement_sum="245.994641614" />
    <node avg_slowdown_ratio="0.0" id="node_04x14" junction="True" old_x="400.0" old_y="1400.0" type="priority" weight_num="4.0" weight_sum="0.0" x="-797.66228425" x_displacement_sum="-1197.66228425" y="1935.00905416" y_displacement_sum="535.009054163" />
    <node avg_slowdown_ratio="0.0" id="node_04x15" junction="True" old_x="400.0" old_y="1500.0" type="priority" weight_num="4.0" weight_sum="0.0" x="-453.913584772" x_displacement_sum="-853.913584772" y="2125.84525849" y_displacement_sum="625.845258489" />
    <node avg_slowdown_ratio="0.0" id="node_04x16" junction="True" old_x="400.0" old_y="1600.0" type="priority" weight_num="4.0" weight_sum="0.0" x="-176.615911854" x_displacement_sum="-576.615911854" y="2176.61591185" y_displacement_sum="576.615911854" />
    <node avg_slowdown_ratio="0.0" id="node_04x17" junction="True" old_x="400.0" old_y="1700.0" type="priority" weight_num="4.0" weight_sum="0.0" x="2.757253022" x_displacement_sum="-397.242746978" y="2190.45653615" y_displacement_sum="490.456536154" />
    <node avg_slowdown_ratio="0.0" id="node_04x18" junction="True" old_x="400.0" old_y="1800.0" type="priority" weight_num="4.0" weight_sum="0.0" x="114.827301363" x_displacement_sum="-285.172698637" y="2210.25092213" y_displacement_sum="410.250922134" />
    <node avg_slowdown_ratio="0.0" id="node_04x19" junction="True" old_x="400.0" old_y="1900.0" type="priority" weight_num="4.0" weight_sum="0.0" x="187.138481366" x_displacement_sum="-212.861518634" y="2244.88695565" y_displacement_sum="344.88695565" />
    <node avg_slowdown_ratio="0.0" id="node_04x20" junction="True" old_x="400.0" old_y="2000.0" type="priority" weight_num="3.0" weight_sum="0.0" x="236.080620045" x_displacement_sum="-163.919379955" y="2293.11706871" y_displacement_sum="293.117068709" />
    <node avg_slowdown_ratio="0.0" id="node_05x00" junction="True" old_x="500.0" old_y="0.0" type="priority" weight_num="3.0" weight_sum="0.0" x="350.391020516" x_displacement_sum="-149.608979484" y="-333.137515293" y_displacement_sum="-333.137515293" />
    <node avg_slowdown_ratio="0.0" id="node_05x01" junction="True" old_x="500.0" old_y="100.0" type="priority" weight_num="4.0" weight_sum="0.0" x="303.308448758" x_displacement_sum="-196.691551242" y="-303.5307524" y_displacement_sum="-403.5307524" />
    <node avg_slowdown_ratio="0.0" id="node_05x02" junction="True" old_x="500.0" old_y="200.0" type="priority" weight_num="4.0" weight_sum="0.0" x="230.743630161" x_displacement_sum="-269.256369839" y="-301.7783639" y_displacement_sum="-501.7783639" />
    <node avg_slowdown_ratio="0.0" id="node_05x03" junction="True" old_x="500.0" old_y="300.0" type="priority" weight_num="4.0" weight_sum="0.0" x="107.923796902" x_displacement_sum="-392.076203098" y="-344.551475904" y_displacement_sum="-644.551475904" />
    <node avg_slowdown_ratio="0.0" id="node_05x04" junction="True" old_x="500.0" old_y="400.0" type="priority" weight_num="4.0" weight_sum="0.0" x="-125.845258489" x_displacement_sum="-625.845258489" y="-453.913584772" y_displacement_sum="-853.913584772" />
    <node avg_slowdown_ratio="0.0" id="node_05x05" junction="True" old_x="500.0" old_y="500.0" type="priority" weight_num="4.0" weight_sum="0.0" x="-616.65670447" x_displacement_sum="-1116.65670447" y="-616.65670446" y_displacement_sum="-1116.65670446" />