<?xml version='1.0' encoding='UTF-8'?>
<edges xmlns:xsi="http://www.w3.org/2001/XMLSchema-instance" version="0.27" xsi:noNamespaceSchemaLocation="http://sumo.dlr.de/xsd/edges_file.xsd">
    <edge disallow="tram rail_urban rail rail_electric ship" dump_speed="9.86" from="node_00x00" id="xedge_00x00" len="100.0" numLanes="1" priority="5" slowdown="4.03" slowdown_ratio="0.290136789057" speed="13.89" to="node_00x01" type="highway.undefined" />
    <edge disallow="tram rail_urban rail rail_electric ship" dump_speed="10.32" from="node_00x01" id="xedge_00x01" len="100.0" numLanes="1" priority="5" slowdown="3.57" slowdown_ratio="0.257019438445" speed="13.89" to="node_00x00" type="highway.undefined" />
    <edge disallow="tram rail_urban rail rail_electric ship" dump_speed="10.17" from="node_00x01" id="xedge_00x02" len="100.0" numLanes="1" priority="5" slowdown="3.72" slowdown_ratio="0.267818574514" speed="13.89" to="node_00x02" type="highway.undefined" />
    <edge disallow="tram rail_urban rail rail_electric ship" dump_speed="10.76" from="node_00x02" id="xedge_00x03" len="100.0" numLanes="1" priority="5" slowdown="3.13" slowdown_ratio="0.225341972642" speed="13.89" to="node_00x01" type="highway.undefined" />
    <edge disallow="tram rail_urban rail rail_electric ship" dump_speed="10.06" from="node_00x02" id="xedge_00x04" len="100.0" numLanes="1" priority="5" slowdown="3.83" slowdown_ratio="0.275737940965" speed="13.89" to="node_00x03" type="highway.undefined" />
    <edge disallow="tram rail_urban rail rail_electric ship" dump_speed="9.95" from="node_00x03" id="xedge_00x05" len="100.0" numLanes="1" priority="5" slowdown="3.94" slowdown_ratio="0.283657307415" speed="13.89" to="node_00x02" type="highway.undefined" />
    <edge disallow="tram rail_urban rail rail_electric ship" dump_speed="12.25" from="node_00x03" id="xedge_00x06" len="100.0" numLanes="1" priority="5" slowdown="1.64" slowdown_ratio="0.118070554356" speed="13.89" to="node_00x04" type="highway.undefined" />
    <edge disallow="tram rail_urban rail rail_electric ship" dump_speed="8.58" from="node_00x04" id="xedge_00x07" len="100.0" numLanes="1" priority="5" slowdown="5.31" slowdown_ratio="0.382289416847" speed="13.89" to="node_00x03" type="highway.undefined" />
    <edge disallow="tram rail_urban rail rail_electric ship" dump_speed="9.99" from="node_00x05" id="xedge_00x10" len="100.0" numLanes="1" priority="5" slowdown="3.9" slowdown_ratio="0.280777537797" speed="13.89" to="node_00x06" type="highway.undefined" />
    <edge disallow="tram rail_urban rail rail_electric ship" dump_speed="10.08" from="node_00x06" id="xedge_00x11" len="100.0" numLanes="1" priority="5" slowdown="3.81" slowdown_ratio="0.274298056156" speed="13.89" to="node_00x05" type="highway.undefined" />
    <edge disallow="tram rail_urban rail rail_electric ship" dump_speed="10.44" from="node_00x06" id="xedge_00x12" len="100.0" numLanes="1" priority="5" slowdown="3.45" slowdown_ratio="0.24838012959" speed="13.89" to="node_00x07" type="highway.undefined" />
    <edge disallow="tram rail_urban rail rail_electric ship" dump_speed="10.69" from="node_00x07" id="xedge_00x13" len="100.0" numLanes="1" priority="5" slowdown="3.2" slowdown_ratio="0.230381569474" speed="13.89" to="node_00x06" type="highway.undefined" />
    <edge disallow="tram rail_urban rail rail_electric ship" dump_speed="10.67" from="node_00x07" id="xedge_00x14" len="100.0" numLanes="1" priority="5" slowdown="3.22" slowdown_ratio="0.231821454284" speed="13.89" to="node_00x08" type="highway.undefined" />
    <edge disallow="tram rail_urban rail rail_electric ship" dump_speed="10.68" from="node_00x08" id="xedge_00x15" len="100.0" numLanes="1" priority="5" slowdown="3.21" slowdown_ratio="0.231101511879" speed="13.89" to="node_00x07" type="highway.undefined" />
    <edge disallow="tram rail_urban rail rail_electric ship" dump_speed="10.36" from="node_00x09" id="xedge_00x18" len="100.0" numLanes="1" priority="5" slowdown="3.53" slowdown_ratio="0.254139668826" speed="13.89" to="node_00x10" type="highway.undefined" />
    <edge disallow="tram rail_urban rail rail_electric ship" dump_speed="10.37" from="node_00x10" id="xedge_00x19" len="100.0" numLanes="1" priority="5" slowdown="3.52" slowdown_ratio="0.253419726422" speed="13.89" to="node_00x09" type="highway.undefined" />
    <edge disallow="tram rail_urban rail rail_electric ship" dump_speed="10.51" from="node_00x10" id="xedge_00x20" len="100.0" numLanes="1" priority="5" slowdown="3.38" slowdown_ratio="0.243340532757" speed="13.89" to="node_00x11" type="highway.undefined" />
    <edge disallow="tram rail_urban rail rail_electric ship" dump_speed="10.77" from="node_00x11" id="xedge_00x21" len="100.0" numLanes="1" priority="5" slowdown="3.12" slowdown_ratio="0.224622030238" speed="13.89" to="node_00x10" type="highway.undefined" />
    <edge disallow="tram rail_urban rail rail_electric ship" dump_speed="10.74" from="node_00x11" id="xedge_00x22" len="100.0" numLanes="1" priority="5" slowdown="3.15" slowdown_ratio="0.226781857451" speed="13.89" to="node_00x12" type="highway.undefined" />
    <edge disallow="tram rail_urban rail rail_electric ship" dump_speed="10.28" from="node_00x12" id="xedge_00x23" len="100.0" numLanes="1" priority="5" slowdown="3.61" slowdown_ratio="0.259899208063" speed="13.89" to="node_00x11" type="highway.undefined" />
    <edge disallow="tram rail_urban rail rail_electric ship" dump_speed="10.45" from="node_00x12" id="xedge_00x24" len="100.0" numLanes="1" priority="5" slowdown="3.44" slowdown_ratio="0.247660187185" speed="13.89" to="node_00x13" type="highway.undefined" />
    <edge disallow="tram rail_urban rail rail_electric ship" dump_speed="10.83" from="node_00x13" id="xedge_00x25" len="100.0" numLanes="1" priority="5" slowdown="3.06" slowdown_ratio="0.22030237581" speed="13.89" to="node_00x12" type="highway.undefined" />
    <edge disallow="tram rail_urban rail rail_electric ship" dump_speed="10.5" from="node_00x15" id="xedge_00x30" len="100.0" numLanes="1" priority="5" slowdown="3.39" slowdown_ratio="0.244060475162" speed="13.89" to="node_00x16" type="highway.undefined" />
    <edge disallow="tram rail_urban rail rail_electric ship" dump_speed="10.76" from="node_00x16" id="xedge_00x31" len="100.0" numLanes="1" priority="5" slowdown="3.13" slowdown_ratio="0.225341972642" speed="13.89" to="node_00x15" type="highway.undefined" />
    <edge disallow="tram rail_urban rail rail_electric ship" dump_speed="10.59" from="node_00x16" id="xedge_00x32" len="100.0" numLanes="1" priority="5" slowdown="3.3" slowdown_ratio="0.237580993521" speed="13.89" to="node_00x17" type="highway.undefined" />
    <edge disallow="tram rail_urban rail rail_electric ship" dump_speed="10.68" from="node_00x17" id="xedge_00x33" len="100.0" numLanes="1" priority="5" slowdown="3.21" slowdown_ratio="0.231101511879" speed="13.89" to="node_00x16" type="highway.undefined" />
    <edge disallow="tram rail_urban rail rail_electric ship" dump_speed="10.4" from="node_00x17" id="xedge_00x34" len="100.0" numLanes="1" priority="5" slowdown="3.49" slowdown_ratio="0.251259899208" speed="13.89" to="node_00x18" type="highway.undefined" />
    <edge disallow="tram rail_urban rail rail_electric ship" dump_speed="9.95" from="node_00x18" id="xedge_00x35" len="100.0" numLanes="1" priority="5" slowdown="3.94" slowdown_ratio="0.283657307415" speed="13.89" to="node_00x17" type="highway.undefined" />
    <edge disallow="tram rail_urban rail rail_electric ship" dump_speed="10.7" from="node_00x18" id="xedge_00x36" len="100.0" numLanes="1" priority="5" slowdown="3.19" slowdown_ratio="0.22966162707" speed="13.89" to="node_00x19" type="highway.undefined" />
    <edge disallow="tram rail_urban rail rail_electric ship" dump_speed="10.89" from="node_00x19" id="xedge_00x37" len="100.0" numLanes="1" priority="5" slowdown="3.0" slowdown_ratio="0.215982721382" speed="13.89" to="node_00x18" type="highway.undefined" />
    <edge disallow="tram rail_urban rail rail_electric ship" dump_speed="10.35" from="node_01x00" id="xedge_01x00" len="100.0" numLanes="1" priority="5" slowdown="3.54" slowdown_ratio="0.254859611231" speed="13.89" to="node_01x01" type="highway.undefined" />
    <edge disallow="tram rail_urban rail rail_electric ship" dump_speed="10.46" from="node_01x01" id="xedge_01x01" len="100.0" numLanes="1" priority="5" slowdown="3.43" slowdown_ratio="0.24694024478" speed="13.89" to="node_01x00" type="highway.undefined" />
    <edge disallow="tram rail_urban rail rail_electric ship" dump_speed="10.69" from="node_01x03" id="xedge_01x06" len="100.0" numLanes="1" priority="5" slowdown="3.2" slowdown_ratio="0.230381569474" speed="13.89" to="node_01x04" type="highway.undefined" />
    <edge disallow="tram rail_urban rail rail_electric ship" dump_speed="10.75" from="node_01x04" id="xedge_01x07" len="100.0" numLanes="1" priority="5" slowdown="3.14" slowdown_ratio="0.226061915047" speed="13.89" to="node_01x03" type="highway.undefined" />
    <edge disallow="tram rail_urban rail rail_electric ship" dump_speed="10.67" from="node_01x05" id="xedge_01x10" len="100.0" numLanes="1" priority="5" slowdown="3.22" slowdown_ratio="0.231821454284" speed="13.89" to="node_01x06" type="highway.undefined" />
    <edge disallow="tram rail_urban rail rail_electric ship" dump_speed="10.48" from="node_01x06" id="xedge_01x11" len="100.0" numLanes="1" priority="5" slowdown="3.41" slowdown_ratio="0.245500359971" speed="13.89" to="node_01x05" type="highway.undefined" />
    <edge disallow="tram rail_urban rail rail_electric ship" dump_speed="10.63" from="node_01x08" id="xedge_01x16" len="100.0" numLanes="1" priority="5" slowdown="3.26" slowdown_ratio="0.234701223902" speed="13.89" to="node_01x09" type="highway.undefined" />
    <edge disallow="tram rail_urban rail rail_electric ship" dump_speed="10.39" from="node_01x09" id="xedge_01x17" len="100.0" numLanes="1" priority="5" slowdown="3.5" slowdown_ratio="0.251979841613" speed="13.89" to="node_01x08" type="highway.undefined" />
    <edge disallow="tram rail_urban rail rail_electric ship" dump_speed="10.5" from="node_01x09" id="xedge_01x18" len="100.0" numLanes="1" priority="5" slowdown="3.39" slowdown_ratio="0.244060475162" speed="13.89" to="node_01x10" type="highway.undefined" />
    <edge disallow="tram rail_urban rail rail_electric ship" dump_speed="10.69" from="node_01x10" id="xedge_01x19" len="100.0" numLanes="1" priority="5" slowdown="3.2" slowdown_ratio="0.230381569474" speed="13.89" to="node_01x09" type="highway.undefined" />
    <edge disallow="tram rail_urban rail rail_electric ship" dump_speed="10.43" from="node_01x10" id="xedge_01x20" len="100.0" numLanes="1" priority="5" slowdown="3.46" slowdown_ratio="0.249100071994" speed="13.89" to="node_01x11" type="highway.undefined" />
    <edge disallow="tram rail_urban rail rail_electric ship" dump_speed="9.76" from="node_01x11" id="xedge_01x21" len="100.0" numLanes="1" priority="5" slowdown="4.13" slowdown_ratio="0.297336213103" speed="13.89" to="node_01x10" type="highway.undefined" />
    <edge disallow="tram rail_urban rail rail_electric ship" dump_speed="10.11" from="node_01x12" id="xedge_01x24" len="100.0" numLanes="1" priority="5" slowdown="3.78" slowdown_ratio="0.272138228942" speed="13.89" to="node_01x13" type="highway.undefined" />
    <edge disallow="tram rail_urban rail rail_electric ship" dump_speed="10.8" from="node_01x13" id="xedge_01x25" len="100.0" numLanes="1" priority="5" slowdown="3.09" slowdown_ratio="0.222462203024" speed="13.89" to="node_01x12" type="highway.undefined" />
    <edge disallow="tram rail_urban rail rail_electric ship" dump_speed="10.75" from="node_01x13" id="xedge_01x26" len="100.0" numLanes="1" priority="5" slowdown="3.14" slowdown_ratio="0.226061915047" speed="13.89" to="node_01x14" type="highway.undefined" />
    <edge disallow="tram rail_urban rail rail_electric ship" dump_speed="10.68" from="node_01x14" id="xedge_01x27" len="100.0" numLanes="1" priority="5" slowdown="3.21" slowdown_ratio="0.231101511879" speed="13.89" to="node_01x13" type="highway.undefined" />
    <edge disallow="tram rail_urban rail rail_electric ship" dump_speed="10.87" from="node_01x14" id="xedge_01x28" len="100.0" numLanes="1" priority="5" slowdown="3.02" slowdown_ratio="0.217422606192" speed="13.89" to="node_01x15" type="highway.undefined" />
    <edge disallow="tram rail_urban rail rail_electric ship" dump_speed="10.13" from="node_01x15" id="xedge_01x29" len="100.0" numLanes="1" priority="5" slowdown="3.76" slowdown_ratio="0.270698344132" speed="13.89" to="node_01x14" type="highway.undefined" />
    <edge disallow="tram rail_urban rail rail_electric ship" dump_speed="10.5" from="node_01x16" id="xedge_01x32" len="100.0" numLanes="1" priority="5" slowdown="3.39" slowdown_ratio="0.244060475162" speed="13.89" to="node_01x17" type="highway.undefined" />
    <edge disallow="tram rail_urban rail rail_electric ship" dump_speed="10.31" from="node_01x17" id="xedge_01x33" len="100.0" numLanes="1" priority="5" slowdown="3.58" slowdown_ratio="0.25773938085" speed="13.89" to="node_01x16" type="highway.undefined" />
    <edge disallow="tram rail_urban rail rail_electric ship" dump_speed="10.83" from="node_01x17" id="xedge_01x34" len="100.0" numLanes="1" priority="5" slowdown="3.06" slowdown_ratio="0.22030237581" speed="13.89" to="node_01x18" type="highway.undefined" />
    <edge disallow="tram rail_urban rail rail_electric ship" dump_speed="10.81" from="node_01x18" id="xedge_01x35" len="100.0" numLanes="1" priority="5" slowdown="3.08" slowdown_ratio="0.221742260619" speed="13.89" to="node_01x17" type="highway.undefined" />
    <edge disallow="tram rail_urban rail rail_electric ship" dump_speed="10.34" from="node_01x19" id="xedge_01x38" len="100.0" numLanes="1" priority="5" slowdown="3.55" slowdown_ratio="0.255579553636" speed="13.89" to="node_01x20" type="highway.undefined" />
    <edge disallow="tram rail_urban rail rail_electric ship" dump_speed="11.02" from="node_01x20" id="xedge_01x39" len="100.0" numLanes="1" priority="5" slowdown="2.87" slowdown_ratio="0.206623470122" speed="13.89" to="node_01x19" type="highway.undefined" />
    <edge disallow="tram rail_urban rail rail_electric ship" dump_speed="10.75" from="node_02x01" id="xedge_02x02" len="100.0" numLanes="1" priority="5" slowdown="3.14" slowdown_ratio="0.226061915047" speed="13.89" to="node_02x02" type="highway.undefined" />
    <edge disallow="tram rail_urban rail rail_electric ship" dump_speed="10.09" from="node_02x02" id="xedge_02x03" len="100.0" numLanes="1" priority="5" slowdown="3.8" slowdown_ratio="0.273578113751" speed="13.89" to="node_02x01" type="highway.undefined" />
    <edge disallow="tram rail_urban rail rail_electric ship" dump_speed="10.21" from="node_02x05" id="xedge_02x10" len="100.0" numLanes="1" priority="5" slowdown="3.68" slowdown_ratio="0.264938804896" speed="13.89" to="node_02x06" type="highway.undefined" />
    <edge disallow="tram rail_urban rail rail_electric ship" dump_speed="11.28" from="node_02x06" id="xedge_02x11" len="100.0" numLanes="1" priority="5" slowdown="2.61" slowdown_ratio="0.187904967603" speed="13.89" to="node_02x05" type="highway.undefined" />
    <edge disallow="tram rail_urban rail rail_electric ship" dump_speed="10.58" from="node_02x06" id="xedge_02x12" len="100.0" numLanes="1" priority="5" slowdown="3.31" slowdown_ratio="0.238300935925" speed="13.89" to="node_02x07" type="highway.undefined" />
    <edge disallow="tram rail_urban rail rail_electric ship" dump_speed="10.71" from="node_02x07" id="xedge_02x13" len="100.0" numLanes="1" priority="5" slowdown="3.18" slowdown_ratio="0.228941684665" speed="13.89" to="node_02x06" type="highway.undefined" />
    <edge disallow="tram rail_urban rail rail_electric ship" dump_speed="10.75" from="node_02x07" id="xedge_02x14" len="100.0" numLanes="1" priority="5" slowdown="3.14" slowdown_ratio="0.226061915047" speed="13.89" to="node_02x08" type="highway.undefined" />
    <edge disallow="tram rail_urban rail rail_electric ship" dump_speed="10.5" from="node_02x08" id="xedge_02x15" len="100.0" numLanes="1" priority="5" slowdown="3.39" slowdown_ratio="0.244060475162" speed="13.89" to="node_02x07" type="highway.undefined" />
    <edge disallow="tram rail_urban rail rail_electric ship" dump_speed="10.82" from="node_02x08" id="xedge_02x16" len="100.0" numLanes="1" priority="5" slowdown="3.07" slowdown_ratio="0.221022318215" speed="13.89" to="node_02x09" type="highway.undefined" />
    <edge disallow="tram rail_urban rail rail_electric ship" dump_speed="8.79" from="node_02x09" id="xedge_02x17" len="100.0" numLanes="1" priority="5" slowdown="5.1" slowdown_ratio="0.36717062635" speed="13.89" to="node_02x08" type="highway.undefined" />
    <edge disallow="tram rail_urban rail rail_electric ship" dump_speed="9.91" from="node_02x11" id="xedge_02x22" len="100.0" numLanes="1" priority="5" slowdown="3.98" slowdown_ratio="0.286537077034" speed="13.89" to="node_02x12" type="highway.undefined" />
    <edge disallow="tram rail_urban rail rail_electric ship" dump_speed="11.58" from="node_02x12" id="xedge_02x23" len="100.0" numLanes="1" priority="5" slowdown="2.31" slowdown_ratio="0.166306695464" speed="13.89" to="node_02x11" type="highway.undefined" />
    <edge disallow="tram rail_urban rail rail_electric ship" dump_speed="11.17" from="node_02x14" id="xedge_02x28" len="100.0" numLanes="1" priority="5" slowdown="2.72" slowdown_ratio="0.195824334053" speed="13.89" to="node_02x15" type="highway.undefined" />
    <edge disallow="tram rail_urban rail rail_electric ship" dump_speed="9.83" from="node_02x15" id="xedge_02x29" len="100.0" numLanes="1" priority="5" slowdown="4.06" slowdown_ratio="0.292296616271" speed="13.89" to="node_02x14" type="highway.undefined" />
    <edge disallow="tram rail_urban rail rail_electric ship" dump_speed="10.62" from="node_02x16" id="xedge_02x32" len="100.0" numLanes="1" priority="5" slowdown="3.27" slowdown_ratio="0.235421166307" speed="13.89" to="node_02x17" type="highway.undefined" />
    <edge disallow="tram rail_urban rail rail_electric ship" dump_speed="9.98" from="node_02x17" id="xedge_02x33" len="100.0" numLanes="1" priority="5" slowdown="3.91" slowdown_ratio="0.281497480202" speed="13.89" to="node_02x16" type="highway.undefined" />
    <edge disallow="tram rail_urban rail rail_electric ship" dump_speed="10.76" from="node_02x18" id="xedge_02x36" len="100.0" numLanes="1" priority="5" slowdown="3.13" slowdown_ratio="0.225341972642" speed="13.89" to="node_02x19" type="highway.undefined" />
    <edge disallow="tram rail_urban rail rail_electric ship" dump_speed="10.84" from="node_02x19" id="xedge_02x37" len="100.0" numLanes="1" priority="5" slowdown="3.05" slowdown_ratio="0.219582433405" speed="13.89" to="node_02x18" type="highway.undefined" />
    <edge disallow="tram rail_urban rail rail_electric ship" dump_speed="10.85" from="node_02x19" id="xedge_02x38" len="100.0" numLanes="1" priority="5" slowdown="3.04" slowdown_ratio="0.218862491001" speed="13.89" to="node_02x20" type="highway.undefined" />
    <edge disallow="tram rail_urban rail rail_electric ship" dump_speed="9.38" from="node_02x20" id="xedge_02x39" len="100.0" numLanes="1" priority="5" slowdown="4.51" slowdown_ratio="0.324694024478" speed="13.89" to="node_02x19" type="highway.undefined" />
    <edge disallow="tram rail_urban rail rail_electric ship" dump_speed="10.81" from="node_03x00" id="xedge_03x00" len="100.0" numLanes="1" priority="5" slowdown="3.08" slowdown_ratio="0.221742260619" speed="13.89" to="node_03x01" type="highway.undefined" />
    <edge disallow="tram rail_urban rail rail_electric ship" dump_speed="10.71" from="node_03x01" id="xedge_03x01" len="100.0" numLanes="1" priority="5" slowdown="3.18" slowdown_ratio="0.228941684665" speed="13.89" to="node_03x00" type="highway.undefined" />
    <edge disallow="tram rail_urban rail rail_electric ship" dump_speed="10.68" from="node_03x01" id="xedge_03x02" len="100.0" numLanes="1" priority="5" slowdown="3.21" slowdown_ratio="0.231101511879" speed="13.89" to="node_03x02" type="highway.undefined" />
    <edge disallow="tram rail_urban rail rail_electric ship" dump_speed="10.77" from="node_03x02" id="xedge_03x03" len="100.0" numLanes="1" priority="5" slowdown="3.12" slowdown_ratio="0.224622030238" speed="13.89" to="node_03x01" type="highway.undefined" />
    <edge disallow="tram rail_urban rail rail_electric ship" dump_speed="10.71" from="node_03x02" id="xedge_03x04" len="100.0" numLanes="1" priority="5" slowdown="3.18" slowdown_ratio="0.228941684665" speed="13.89" to="node_03x03" type="highway.undefined" />
    <edge disallow="tram rail_urban rail rail_electric ship" dump_speed="10.53" from="node_03x03" id="xedge_03x05" len="100.0" numLanes="1" priority="5" slowdown="3.36" slowdown_ratio="0.241900647948" speed="13.89" to="node_03x02" type="highway.undefined" />
    <edge disallow="tram rail_urban rail rail_electric ship" dump_speed="10.41" from="node_03x03" id="xedge_03x06" len="100.0" numLanes="1" priority="5" slowdown="3.48" slowdown_ratio="0.250539956803" speed="13.89" to="node_03x04" type="highway.undefined" />
    <edge disallow="tram rail_urban rail rail_electric ship" dump_speed="9.3" from="node_03x04" id="xedge_03x07" len="100.0" numLanes="1" priority="5" slowdown="4.59" slowdown_ratio="0.330453563715" speed="13.89" to="node_03x03" type="highway.undefined" />
    <edge disallow="tram rail_urban rail rail_electric ship" dump_speed="10.65" from="node_03x05" id="xedge_03x10" len="100.0" numLanes="1" priority="5" slowdown="3.24" slowdown_ratio="0.233261339093" speed="13.89" to="node_03x06" type="highway.undefined" />
    <edge disallow="tram rail_urban rail rail_electric ship" dump_speed="10.48" from="node_03x06" id="xedge_03x11" len="100.0" numLanes="1" priority="5" slowdown="3.41" slowdown_ratio="0.245500359971" speed="13.89" to="node_03x05" type="highway.undefined" />
    <edge disallow="tram rail_urban rail rail_electric ship" dump_speed="10.54" from="node_03x06" id="xedge_03x12" len="100.0" numLanes="1" priority="5" slowdown="3.35" slowdown_ratio="0.241180705544" speed="13.89" to="node_03x07" type="highway.undefined" />
    <edge disallow="tram rail_urban rail rail_electric ship" dump_speed="10.82" from="node_03x07" id="xedge_03x13" len="100.0" numLanes="1" priority="5" slowdown="3.07" slowdown_ratio="0.221022318215" speed="13.89" to="node_03x06" type="highway.undefined" />
    <edge disallow="tram rail_urban rail rail_electric ship" dump_speed="10.48" from="node_03x08" id="xedge_03x16" len="100.0" numLanes="1" priority="5" slowdown="3.41" slowdown_ratio="0.245500359971" speed="13.89" to="node_03x09" type="highway.undefined" />
    <edge disallow="tram rail_urban rail rail_electric ship" dump_speed="10.25" from="node_03x09" id="xedge_03x17" len="100.0" numLanes="1" priority="5" slowdown="3.64" slowdown_ratio="0.262059035277" speed="13.89" to="node_03x08" type="highway.undefined" />
    <edge disallow="tram rail_urban rail rail_electric ship" dump_speed="7.79" from="node_03x09" id="xedge_03x18" len="100.0" numLanes="1" priority="5" slowdown="6.1" slowdown_ratio="0.439164866811" speed="13.89" to="node_03x10" type="highway.undefined" />
    <edge disallow="tram rail_urban rail rail_electric ship" dump_speed="10.53" from="node_03x10" id="xedge_03x19" len="100.0" numLanes="1" priority="5" slowdown="3.36" slowdown_ratio="0.241900647948" speed="13.89" to="node_03x09" type="highway.undefined" />
    <edge disallow="tram rail_urban rail rail_electric ship" dump_speed="11.79" from="node_03x10" id="xedge_03x20" len="100.0" numLanes="1" priority="5" slowdown="2.1" slowdown_ratio="0.151187904968" speed="13.89" to="node_03x11" type="highway.undefined" />
    <edge disallow="tram rail_urban rail rail_electric ship" dump_speed="6.75" from="node_03x11" id="xedge_03x21" len="100.0" numLanes="1" priority="5" slowdown="7.14" slowdown_ratio="0.51403887689" speed="13.89" to="node_03x10" type="highway.undefined" />
    <edge disallow="tram rail_urban rail rail_electric ship" dump_speed="8.69" from="node_03x13" id="xedge_03x26" len="100.0" numLanes="1" priority="5" slowdown="5.2" slowdown_ratio="0.374370050396" speed="13.89" to="node_03x14" type="highway.undefined" />
    <edge disallow="tram rail_urban rail rail_electric ship" dump_speed="12.84" from="node_03x14" id="xedge_03x27" len="100.0" numLanes="1" priority="5" slowdown="1.05" slowdown_ratio="0.0755939524838" speed="13.89" to="node_03x13" type="highway.undefined" />
    <edge disallow="tram rail_urban rail rail_electric ship" dump_speed="10.46" from="node_03x14" id="xedge_03x28" len="100.0" numLanes="1" priority="5" slowdown="3.43" slowdown_ratio="0.24694024478" speed="13.89" to="node_03x15" type="highway.undefined" />
    <edge disallow="tram rail_urban rail rail_electric ship" dump_speed="10.54" from="node_03x15" id="xedge_03x29" len="100.0" numLanes="1" priority="5" slowdown="3.35" slowdown_ratio="0.241180705544" speed="13.89" to="node_03x14" type="highway.undefined" />
    <edge disallow="tram rail_urban rail rail_electric ship" dump_speed="10.47" from="node_03x15" id="xedge_03x30" len="100.0" numLanes="1" priority="5" slowdown="3.42" slowdown_ratio="0.246220302376" speed="13.89" to="node_03x16" type="highway.undefined" />
    <edge disallow="tram rail_urban rail rail_electric ship" dump_speed="9.78" from="node_03x16" id="xedge_03x31" len="100.0" numLanes="1" priority="5" slowdown="4.11" slowdown_ratio="0.295896328294" speed="13.89" to="node_03x15" type="highway.undefined" />
    <edge disallow="tram rail_urban rail rail_electric ship" dump_speed="10.45" from="node_03x17" id="xedge_03x34" len="100.0" numLanes="1" priority="5" slowdown="3.44" slowdown_ratio="0.247660187185" speed="13.89" to="node_03x18" type="highway.undefined" />
    <edge disallow="tram rail_urban rail rail_electric ship" dump_speed="11.24" from="node_03x18" id="xedge_03x35" len="100.0" numLanes="1" priority="5" slowdown="2.65" slowdown_ratio="0.190784737221" speed="13.89" to="node_03x17" type="highway.undefined" />
    <edge disallow="tram rail_urban rail rail_electric ship" dump_speed="11.09" from="node_03x19" id="xedge_03x38" len="100.0" numLanes="1" priority="5" slowdown="2.8" slowdown_ratio="0.20158387329" speed="13.89" to="node_03x20" type="highway.undefined" />
    <edge disallow="tram rail_urban rail rail_electric ship" dump_speed="9.78" from="node_03x20" id="xedge_03x39" len="100.0" numLanes="1" priority="5" slowdown="4.11" slowdown_ratio="0.295896328294" speed="13.89" to="node_03x19" type="highway.undefined" />
    <edge disallow="tram rail_urban rail rail_electric ship" dump_speed="10.88" from="node_04x02" id="xedge_04x04" len="100.0" numLanes="1" priority="5" slowdown="3.01" slowdown_ratio="0.216702663787" speed="13.89" to="node_04x03" type="highway.undefined" />
    <edge disallow="tram rail_urban rail rail_electric ship" dump_speed="10.09" from="node_04x03" id="xedge_04x05" len="100.0" numLanes="1" priority="5" slowdown="3.8" slowdown_ratio="0.273578113751" speed="13.89" to="node_04x02" type="highway.undefined" />
    <edge disallow="tram rail_urban rail rail_electric ship" dump_speed="9.68" from="node_04x04" id="xedge_04x08" len="100.0" numLanes="1" priority="5" slowdown="4.21" slowdown_ratio="0.30309575234" speed="13.89" to="node_04x05" type="highway.undefined" />
    <edge disallow="tram rail_urban rail rail_electric ship" dump_speed="9.99" from="node_04x05" id="xedge_04x09" len="100.0" numLanes="1" priority="5" slowdown="3.9" slowdown_ratio="0.280777537797" speed="13.89" to="node_04x04" type="highway.undefined" />
    <edge disallow="tram rail_urban rail rail_electric ship" dump_speed="10.5" from="node_04x08" id="xedge_04x16" len="100.0" numLanes="1" priority="5" slowdown="3.39" slowdown_ratio="0.244060475162" speed="13.89" to="node_04x09" type="highway.undefined" />
    <edge disallow="tram rail_urban rail rail_electric ship" dump_speed="8.11" from="node_04x09" id="xedge_04x17" len="100.0" numLanes="1" priority="5" slowdown="5.78" slowdown_ratio="0.416126709863" speed="13.89" to="node_04x08" type="highway.undefined" />
    <edge disallow="tram rail_urban rail rail_electric ship" dump_speed="5.39" from="node_04x09" id="xedge_04x18" len="100.0" numLanes="1" priority="5" slowdown="8.5" slowdown_ratio="0.611951043916" speed="13.89" to="node_04x10" type="highway.undefined" />
    <edge disallow="tram rail_urban rail rail_electric ship" dump_speed="10.05" from="node_04x10" id="xedge_04x19" len="100.0" numLanes="1" priority="5" slowdown="3.84" slowdown_ratio="0.276457883369" speed="13.89" to="node_04x09" type="highway.undefined" />
    <edge disallow="tram rail_urban rail rail_electric ship" dump_speed="10.51" from="node_04x10" id="xedge_04x20" len="100.0" numLanes="1" priority="5" slowdown="3.38" slowdown_ratio="0.243340532757" speed="13.89" to="node_04x11" type="highway.undefined" />
    <edge disallow="tram rail_urban rail rail_electric ship" dump_speed="1.46" from="node_04x11" id="xedge_04x21" len="100.0" numLanes="1" priority="5" slowdown="12.43" slowdown_ratio="0.894888408927" speed="13.89" to="node_04x10" type="highway.undefined" />
    <edge disallow="tram rail_urban rail rail_electric ship" dump_speed="9.86" from="node_04x11" id="xedge_04x22" len="100.0" numLanes="1" priority="5" slowdown="4.03" slowdown_ratio="0.290136789057" speed="13.89" to="node_04x12" type="highway.undefined" />
    <edge disallow="tram rail_urban rail rail_electric ship" dump_speed="10.24" from="node_04x12" id="xedge_04x23" len="100.0" numLanes="1" priority="5" slowdown="3.65" slowdown_ratio="0.262778977682" speed="13.89" to="node_04x11" type="highway.undefined" />
    <edge disallow="tram rail_urban rail rail_electric ship" dump_speed="10.96" from="node_04x12" id="xedge_04x24" len="100.0" numLanes="1" priority="5" slowdown="2.93" slowdown_ratio="0.21094312455" speed="13.89" to="node_04x13" type="highway.undefined" />