<?xml version='1.0' encoding='UTF-8'?>
<nodes xmlns:xsi="http://www.w3.org/2001/XMLSchema-instance" version="0.27" xsi:noNamespaceSchemaLocation="http://sumo.dlr.de/xsd/edges_file.xsd"><node avg_slowdown_ratio="0.71382289417" id="node_12x10" junction="True" old_x="1200.0" old_y="1000.0" type="right_before_left" weight_num="4.0" weight_sum="2.85529157668" x="1638.97885672" x_displacement_sum="438.978856716" y="990.24269877" y_displacement_sum="-9.75730123029" />
    <node avg_slowdown_ratio="0.711663066955" id="node_12x11" junction="True" old_x="1200.0" old_y="1100.0" type="right_before_left" weight_num="4.0" weight_sum="2.84665226782" x="1547.6880489" x_displacement_sum="347.6880489" y="1373.25546648" y_displacement_sum="273.255466479" />
    <node avg_slowdown_ratio="0.710043196545" id="node_10x08" junction="True" old_x="1000.0" old_y="800.0" type="right_before_left" weight_num="4.0" weight_sum="2.84017278618" x="916.304705756" x_displacement_sum="-83.6952942444" y="248.883316213" y_displacement_sum="-551.116683787" />
    <node avg_slowdown_ratio="0.674046076315" id="node_11x11" junction="True" old_x="1100.0" old_y="1100.0" type="right_before_left" weight_num="4.0" weight_sum="2.69618430526" x="1259.71178255" x_displacement_sum="159.711782552" y="1463.4107497" y_displacement_sum="363.4107497" />
    <node avg_slowdown_ratio="0.65172786177" id="node_10x07" junction="True" old_x="1000.0" old_y="700.0" type="right_before_left" weight_num="4.0" weight_sum="2.60691144708" x="936.12988019" x_displacement_sum="-63.8701198103" y="13.849900529" y_displacement_sum="-686.150099471" />
    <node avg_slowdown_ratio="0.649028077753" id="node_10x09" junction="True" old_x="1000.0" old_y="900.0" type="right_before_left" weight_num="4.0" weight_sum="2.59611231101" x="945.784817242" x_displacement_sum="-54.2151827576" y="596.080457614" y_displacement_sum="-303.919542386" />
    <node avg_slowdown_ratio="0.645968322535" id="node_11x10" junction="True" old_x="1100.0" old_y="1000.0" type="right_before_left" weight_num="4.0" weight_sum="2.58387329014" x="1336.64712952" x_displacement_sum="236.647129517" y="1052.96054727" y_displacement_sum="52.960547271" />
    <node avg_slowdown_ratio="0.641828653707" id="node_12x12" junction="True" old_x="1200.0" old_y="1200.0" type="right_before_left" weight_num="4.0" weight_sum="2.56731461483" x="1494.37090583" x_displacement_sum="294.370905834" y="1761.41845037" y_displacement_sum="561.418450366" />
    <node avg_slowdown_ratio="0.640568754497" id="node_11x12" junction="True" old_x="1100.0" old_y="1200.0" type="right_before_left" weight_num="4.0" weight_sum="2.56227501799" x="1212.77850102" x_displacement_sum="112.778501023" y="1791.22797246" y_displacement_sum="591.227972465" />
    <node avg_slowdown_ratio="0.638048956085" id="node_12x09" junction="True" old_x="1200.0" old_y="900.0" type="right_before_left" weight_num="4.0" weight_sum="2.55219582434" x="1677.65102249" x_displacement_sum="477.651022491" y="649.983608333" y_displacement_sum="-250.016391667" />
    <node avg_slowdown_ratio="0.632109431245" id="node_10x11" junction="True" old_x="1000.0" old_y="1100.0" type="right_before_left" weight_num="4.0" weight_sum="2.52843772498" x="921.894829686" x_displacement_sum="-78.1051703139" y="1521.15832975" y_displacement_sum="421.158329748" />
    <node avg_slowdown_ratio="0.628329733622" id="node_08x07" junction="True" old_x="800.0" old_y="700.0" type="right_before_left" weight_num="4.0" weight_sum="2.51331893449" x="354.385048396" x_displacement_sum="-445.614951604" y="198.579683923" y_displacement_sum="-501.420316077" />
    <node avg_slowdown_ratio="0.624730021598" id="node_10x10" junction="True" old_x="1000.0" old_y="1000.0" type="right_before_left" weight_num="4.0" weight_sum="2.49892008639" x="976.991965185" x_displacement_sum="-23.0080348148" y="1105.68858099" y_displacement_sum="105.68858099" />
    <node avg_slowdown_ratio="0.621310295175" id="node_09x07" junction="True" old_x="900.0" old_y="700.0" type="right_before_left" weight_num="4.0" weight_sum="2.4852411807" x="600.173713541" x_displacement_sum="-299.826286459" y="80.414342865" y_displacement_sum="-619.585657135" />
    <node avg_slowdown_ratio="0.620230381567" id="node_09x08" junction="True" old_x="900.0" old_y="800.0" type="right_before_left" weight_num="4.0" weight_sum="2.48092152627" x="514.977498391" x_displacement_sum="-385.022501609" y="264.438445852" y_displacement_sum="-535.561554148" />
    <node avg_slowdown_ratio="0.613750899927" id="node_13x10" junction="True" old_x="1300.0" old_y="1000.0" type="right_before_left" weight_num="4.0" weight_sum="2.45500359971" x="1965.47506987" x_displacement_sum="665.475069869" y="932.443469388" y_displacement_sum="-67.5565306118" />
    <node avg_slowdown_ratio="0.613390928728" id="node_10x12" junction="True" old_x="1000.0" old_y="1200.0" type="right_before_left" weight_num="4.0" weight_sum="2.45356371491" x="870.120546563" x_displacement_sum="-129.879453437" y="1817.06303199" y_displacement_sum="617.063031986" />
    <node avg_slowdown_ratio="0.613030957525" id="node_08x08" junction="True" old_x="800.0" old_y="800.0" type="right_before_left" weight_num="4.0" weight_sum="2.4521238301" x="241.733456125" x_displacement_sum="-558.266543875" y="320.075189256" y_displacement_sum="-479.924810744" />
    <node avg_slowdown_ratio="0.61069114471" id="node_11x08" junction="True" old_x="1100.0" old_y="800.0" type="right_before_left" weight_num="4.0" weight_sum="2.44276457884" x="1293.69117425" x_displacement_sum="193.691174253" y="279.118324358" y_displacement_sum="-520.881675642" />
    <node avg_slowdown_ratio="0.6094312455" id="node_11x09" junction="True" old_x="1100.0" old_y="900.0" type="right_before_left" weight_num="4.0" weight_sum="2.437724982" x="1354.55158381" x_displacement_sum="254.551583805" y="645.605882331" y_displacement_sum="-254.394117669" />
    <node avg_slowdown_ratio="0.60781137509" id="node_07x09" junction="True" old_x="700.0" old_y="900.0" type="right_before_left" weight_num="4.0" weight_sum="2.43124550036" x="-2.379795674" x_displacement_sum="-702.379795674" y="709.377633803" y_displacement_sum="-190.622366197" />
    <node avg_slowdown_ratio="0.60637149028" id="node_07x08" junction="True" old_x="700.0" old_y="800.0" type="right_before_left" weight_num="4.0" weight_sum="2.42548596112" x="76.385177171" x_displacement_sum="-623.614822829" y="429.008860157" y_displacement_sum="-370.991139843" />
    <node avg_slowdown_ratio="0.60025197984" id="node_13x11" junction="True" old_x="1300.0" old_y="1100.0" type="right_before_left" weight_num="4.0" weight_sum="2.40100791936" x="1915.27533089" x_displacement_sum="615.275330888" y="1356.2459122" y_displacement_sum="256.2459122" />
    <node avg_slowdown_ratio="0.59521238301" id="node_09x11" junction="True" old_x="900.0" old_y="1100.0" type="right_before_left" weight_num="4.0" weight_sum="2.38084953204" x="583.758324293" x_displacement_sum="-316.241675707" y="1546.52224127" y_displacement_sum="446.522241266" />
    <node avg_slowdown_ratio="0.589632829375" id="node_09x12" junction="True" old_x="900.0" old_y="1200.0" type="right_before_left" weight_num="4.0" weight_sum="2.3585313175" x="616.234815301" x_displacement_sum="-283.765184699" y="1769.25547947" y_displacement_sum="569.255479472" />
    <node avg_slowdown_ratio="0.589452843772" id="node_08x09" junction="True" old_x="800.0" old_y="900.0" type="right_before_left" weight_num="4.0" weight_sum="2.35781137509" x="129.609481528" x_displacement_sum="-670.390518472" y="640.654813323" y_displacement_sum="-259.345186677" />
    <node avg_slowdown_ratio="0.58747300216" id="node_12x08" junction="True" old_x="1200.0" old_y="800.0" type="right_before_left" weight_num="4.0" weight_sum="2.34989200864" x="1677.39308778" x_displacement_sum="477.39308778" y="283.988694666" y_displacement_sum="-516.011305334" />
    <node avg_slowdown_ratio="0.58603311735" id="node_08x13" junction="True" old_x="800.0" old_y="1300.0" type="right_before_left" weight_num="4.0" weight_sum="2.3441324694" x="448.219255348" x_displacement_sum="-351.780744652" y="1842.71242445" y_displacement_sum="542.712424449" />
    <node avg_slowdown_ratio="0.585673146147" id="node_07x13" junction="True" old_x="700.0" old_y="1300.0" type="right_before_left" weight_num="4.0" weight_sum="2.34269258459" x="367.950804505" x_displacement_sum="-332.049195495" y="1750.25034521" y_displacement_sum="450.250345213" />
    <node avg_slowdown_ratio="0.585673146147" id="node_08x11" junction="True" old_x="800.0" old_y="1100.0" type="right_before_left" weight_num="4.0" weight_sum="2.34269258459" x="221.222275642" x_displacement_sum="-578.777724358" y="1430.92504789" y_displacement_sum="330.925047891" />
    <node avg_slowdown_ratio="0.583873290138" id="node_14x10" junction="True" old_x="1400.0" old_y="1000.0" type="right_before_left" weight_num="4.0" weight_sum="2.33549316055" x="2182.36141767" x_displacement_sum="782.361417675" y="917.219745849" y_displacement_sum="-82.7802541512" />
    <node avg_slowdown_ratio="0.58279337653" id="node_07x11" junction="True" old_x="700.0" old_y="1100.0" type="right_before_left" weight_num="4.0" weight_sum="2.33117350612" x="53.133374772" x_displacement_sum="-646.866625228" y="1317.89088678" y_displacement_sum="217.890886779" />
    <node avg_slowdown_ratio="0.582253419725" id="node_09x10" junction="True" old_x="900.0" old_y="1000.0" type="right_before_left" weight_num="4.0" weight_sum="2.3290136789" x="500.529332792" x_displacement_sum="-399.470667208" y="1068.03418307" y_displacement_sum="68.0341830681" />
    <node avg_slowdown_ratio="0.581173506122" id="node_11x13" junction="True" old_x="1100.0" old_y="1300.0" type="right_before_left" weight_num="4.0" weight_sum="2.32469402449" x="1177.63939889" x_displacement_sum="77.6393988917" y="2019.17737004" y_displacement_sum="719.177370043" />
    <node avg_slowdown_ratio="0.580453563715" id="node_08x10" junction="True" old_x="800.0" old_y="1000.0" type="right_before_left" weight_num="4.0" weight_sum="2.32181425486" x="121.070087953" x_displacement_sum="-678.929912047" y="1023.24927445" y_displacement_sum="23.2492744469" />
    <node avg_slowdown_ratio="0.57667386609" id="node_06x13" junction="True" old_x="600.0" old_y="1300.0" type="right_before_left" weight_num="4.0" weight_sum="2.30669546436" x="213.937390235" x_displacement_sum="-386.062609765" y="1632.34449893" y_displacement_sum="332.344498933" />
    <node avg_slowdown_ratio="0.576313894887" id="node_10x13" junction="True" old_x="1000.0" old_y="1300.0" type="right_before_left" weight_num="4.0" weight_sum="2.30525557955" x="918.108085668" x_displacement_sum="-81.8919143321" y="2017.95160151" y_displacement_sum="717.951601513" />
    <node avg_slowdown_ratio="0.571634269255" id="node_07x10" junction="True" old_x="700.0" old_y="1000.0" type="right_before_left" weight_num="4.0" weight_sum="2.28653707702" x="-35.266063503" x_displacement_sum="-735.266063503" y="967.621455369" y_displacement_sum="-32.3785446309" />
    <node avg_slowdown_ratio="0.570914326852" id="node_11x07" junction="True" old_x="1100.0" old_y="700.0" type="right_before_left" weight_num="4.0" weight_sum="2.28365730741" x="1248.76237156" x_displacement_sum="148.762371562" y="51.240202367" y_displacement_sum="-648.759797633" />
    <node avg_slowdown_ratio="0.56119510439" id="node_15x11" junction="True" old_x="1500.0" old_y="1100.0" type="right_before_left" weight_num="4.0" weight_sum="2.24478041756" x="2296.73433362" x_displacement_sum="796.734333622" y="1178.91553569" y_displacement_sum="78.9155356858" />
    <node avg_slowdown_ratio="0.560655147588" id="node_08x12" junction="True" old_x="800.0" old_y="1200.0" type="right_before_left" weight_num="4.0" weight_sum="2.24262059035" x="334.039989561" x_displacement_sum="-465.960010439" y="1705.57837159" y_displacement_sum="505.578371593" />
    <node avg_slowdown_ratio="0.55957523398" id="node_09x09" junction="True" old_x="900.0" old_y="900.0" type="right_before_left" weight_num="4.0" weight_sum="2.23830093592" x="493.352251307" x_displacement_sum="-406.647748693" y="608.438384383" y_displacement_sum="-291.561615617" />
    <node avg_slowdown_ratio="0.559035277178" id="node_06x11" junction="True" old_x="600.0" old_y="1100.0" type="right_before_left" weight_num="4.0" weight_sum="2.23614110871" x="5.797228337" x_displacement_sum="-594.202771663" y="1188.41265486" y_displacement_sum="88.4126548608" />
    <node avg_slowdown_ratio="0.558135349172" id="node_13x07" junction="True" old_x="1300.0" old_y="700.0" type="right_before_left" weight_num="4.0" weight_sum="2.23254139669" x="1923.48754829" x_displacement_sum="623.48754829" y="161.279841792" y_displacement_sum="-538.720158208" />
    <node avg_slowdown_ratio="0.55813534917" id="node_13x09" junction="True" old_x="1300.0" old_y="900.0" type="right_before_left" weight_num="4.0" weight_sum="2.23254139668" x="2003.8010263" x_displacement_sum="703.801026303" y="626.253199508" y_displacement_sum="-273.746800492" />
    <node avg_slowdown_ratio="0.55471562275" id="node_11x06" junction="True" old_x="1100.0" old_y="600.0" type="right_before_left" weight_num="4.0" weight_sum="2.218862491" x="1238.66773337" x_displacement_sum="138.667733371" y="-66.716770838" y_displacement_sum="-666.716770838" />
    <node avg_slowdown_ratio="0.551835853133" id="node_06x12" junction="True" old_x="600.0" old_y="1200.0" type="right_before_left" weight_num="4.0" weight_sum="2.20734341253" x="98.000106033" x_displacement_sum="-501.999893967" y="1430.90938923" y_displacement_sum="230.909389233" />
    <node avg_slowdown_ratio="0.550755939528" id="node_13x12" junction="True" old_x="1300.0" old_y="1200.0" type="right_before_left" weight_num="4.0" weight_sum="2.20302375811" x="1829.61697179" x_displacement_sum="529.616971794" y="1673.17033002" y_displacement_sum="473.17033002" />
    <node avg_slowdown_ratio="0.547876169907" id="node_12x13" junction="True" old_x="1200.0" old_y="1300.0" type="right_before_left" weight_num="4.0" weight_sum="2.19150467963" x="1467.65926534" x_displacement_sum="267.659265336" y="2014.06680308" y_displacement_sum="714.066803079" />
    <node avg_slowdown_ratio="0.54247660187" id="node_09x13" junction="True" old_x="900.0" old_y="1300.0" type="right_before_left" weight_num="4.0" weight_sum="2.16990640748" x="662.66626315" x_displacement_sum="-237.33373685" y="1978.37361239" y_displacement_sum="678.373612386" />
    <node avg_slowdown_ratio="0.541936645067" id="node_13x13" junction="True" old_x="1300.0" old_y="1300.0" type="right_before_left" weight_num="4.0" weight_sum="2.16774658027" x="1763.36174163" x_displacement_sum="463.361741631" y="1971.59585407" y_displacement_sum="671.595854066" />
    <node avg_slowdown_ratio="0.541216702665" id="node_07x12" junction="True" old_x="700.0" old_y="1200.0" type="right_before_left" weight_num="4.0" weight_sum="2.16486681066" x="212.912877067" x_displacement_sum="-487.087122933" y="1530.83460747" y_displacement_sum="330.83460747" />
    <node avg_slowdown_ratio="0.537796976243" id="node_10x05" junction="True" old_x="1000.0" old_y="500.0" type="right_before_left" weight_num="4.0" weight_sum="2.15118790497" x="955.958577548" x_displacement_sum="-44.0414224515" y="-188.677568472" y_displacement_sum="-688.677568472" />
    <node avg_slowdown_ratio="0.53437724982" id="node_10x06" junction="True" old_x="1000.0" old_y="600.0" type="right_before_left" weight_num="4.0" weight_sum="2.13750899928" x="901.12712635" x_displacement_sum="-98.8728736501" y="-77.204778189" y_displacement_sum="-677.204778189" />
    <node avg_slowdown_ratio="0.533837293015" id="node_15x12" junction="True" old_x="1500.0" old_y="1200.0" type="right_before_left" weight_num="4.0" weight_sum="2.13534917206" x="2217.66051105" x_displacement_sum="717.660511047" y="1493.96514561" y_displacement_sum="293.965145614" />
    <node avg_slowdown_ratio="0.531137508998" id="node_06x10" junction="True" old_x="600.0" old_y="1000.0" type="right_before_left" weight_num="4.0" weight_sum="2.12455003599" x="-103.100452139" x_displacement_sum="-703.100452139" y="915.351762425" y_displacement_sum="-84.648237575" />
    <node avg_slowdown_ratio="0.528977681788" id="node_12x04" junction="True" old_x="1200.0" old_y="400.0" type="right_before_left" weight_num="4.0" weight_sum="2.11591072715" x="1394.26821372" x_displacement_sum="194.268213725" y="-143.423663949" y_displacement_sum="-543.423663949" />
    <node avg_slowdown_ratio="0.526997840175" id="node_11x14" junction="True" old_x="1100.0" old_y="1400.0" type="right_before_left" weight_num="4.0" weight_sum="2.1079913607" x="1183.0497459" x_displacement_sum="83.049745902" y="2222.70796284" y_displacement_sum="822.707962838" />
    <node avg_slowdown_ratio="0.52609791217" id="node_13x08" junction="True" old_x="1300.0" old_y="800.0" type="right_before_left" weight_num="4.0" weight_sum="2.10439164868" x="1974.76424036" x_displacement_sum="674.764240359" y="318.257711165" y_displacement_sum="-481.742288835" />
    <node avg_slowdown_ratio="0.52051835853" id="node_06x08" junction="True" old_x="600.0" old_y="800.0" type="right_before_left" weight_num="4.0" weight_sum="2.08207343412" x="-77.608056105" x_displacement_sum="-677.608056105" y="506.029811152" y_displacement_sum="-293.970188848" />
    <node avg_slowdown_ratio="0.519438444923" id="node_14x07" junction="True" old_x="1400.0" old_y="700.0" type="right_before_left" weight_num="4.0" weight_sum="2.07775377969" x="2019.24915366" x_displacement_sum="619.249153661" y="233.219998132" y_displacement_sum="-466.780001868" />
    <node avg_slowdown_ratio="0.519078473723" id="node_14x08" junction="True" old_x="1400.0" old_y="800.0" type="right_before_left" weight_num="4.0" weight_sum="2.07631389489" x="2156.24929519" x_displacement_sum="756.249295192" y="359.422272541" y_displacement_sum="-440.577727459" />
    <node avg_slowdown_ratio="0.517818574513" id="node_13x06" junction="True" old_x="1300.0" old_y="600.0" type="right_before_left" weight_num="4.0" weight_sum="2.07127429805" x="1852.14829548" x_displacement_sum="552.148295477" y="96.143320751" y_displacement_sum="-503.856679249" />
    <node avg_slowdown_ratio="0.51745860331" id="node_05x11" junction="True" old_x="500.0" old_y="1100.0" type="right_before_left" weight_num="4.0" weight_sum="2.06983441324" x="-132.159901801" x_displacement_sum="-632.159901801" y="1100.3861959" y_displacement_sum="0.386195899312" />
    <node avg_slowdown_ratio="0.516918646507" id="node_14x11" junction="True" old_x="1400.0" old_y="1100.0" type="right_before_left" weight_num="4.0" weight_sum="2.06767458603" x="2133.23152175" x_displacement_sum="733.231521747" y="1254.40016673" y_displacement_sum="154.40016673" />
    <node avg_slowdown_ratio="0.514938804897" id="node_14x12" junction="True" old_x="1400.0" old_y="1200.0" type="right_before_left" weight_num="4.0" weight_sum="2.05975521959" x="2082.94573545" x_displacement_sum="682.94573545" y="1614.54866988" y_displacement_sum="414.548669882" />
    <node avg_slowdown_ratio="0.513138948885" id="node_15x10" junction="True" old_x="1500.0" old_y="1000.0" type="right_before_left" weight_num="4.0" weight_sum="2.05255579554" x="2319.86500427" x_displacement_sum="819.865004267" y="920.087856706" y_displacement_sum="-79.9121432945" />
    <node avg_slowdown_ratio="0.508999280057" id="node_12x07" junction="True" old_x="1200.0" old_y="700.0" type="right_before_left" weight_num="4.0" weight_sum="2.03599712023" x="1632.60070391" x_displacement_sum="432.60070391" y="92.848385941" y_displacement_sum="-607.151614059" />
    <node avg_slowdown_ratio="0.505579553635" id="node_11x04" junction="True" old_x="1100.0" old_y="400.0" type="right_before_left" weight_num="4.0" weight_sum="2.02231821454" x="1181.82220854" x_displacement_sum="81.8222085409" y="-203.494537795" y_displacement_sum="-603.494537795" />
    <node avg_slowdown_ratio="0.50485961123" id="node_12x06" junction="True" old_x="1200.0" old_y="600.0" type="right_before_left" weight_num="4.0" weight_sum="2.01943844492" x="1580.97437183" x_displacement_sum="380.974371832" y="-29.648119363" y_displacement_sum="-629.648119363" />
    <node avg_slowdown_ratio="0.504319654428" id="node_11x05" junction="True" old_x="1100.0" old_y="500.0" type="right_before_left" weight_num="4.0" weight_sum="2.01727861771" x="1235.41617313" x_displacement_sum="135.416173132" y="-201.505188455" y_displacement_sum="-701.505188455" />
    <node avg_slowdown_ratio="0.502699784018" id="node_05x12" junction="True" old_x="500.0" old_y="1200.0" type="right_before_left" weight_num="4.0" weight_sum="2.01079913607" x="-59.204190785" x_displacement_sum="-559.204190785" y="1339.20355198" y_displacement_sum="139.203551977" />
    <node avg_slowdown_ratio="0.5" id="node_10x15" junction="True" old_x="1000.0" old_y="1500.0" type="right_before_left" weight_num="4.0" weight_sum="2.0" x="964.012199719" x_displacement_sum="-35.9878002809" y="2240.8322333" y_displacement_sum="740.8322333" />
    <node avg_slowdown_ratio="0.499999999997" id="node_14x06" junction="True" old_x="1400.0" old_y="600.0" type="right_before_left" weight_num="4.0" weight_sum="1.99999999999" x="1882.59203544" x_displacement_sum="482.592035443" y="256.091612769" y_displacement_sum="-343.908387231" />
    <node avg_slowdown_ratio="0.499640028798" id="node_06x09" junction="True" old_x="600.0" old_y="900.0" type="right_before_left" weight_num="4.0" weight_sum="1.99856011519" x="-76.30027579" x_displacement_sum="-676.30027579" y="764.840022436" y_displacement_sum="-135.159977564" />
    <node avg_slowdown_ratio="0.499640028795" id="node_14x13" junction="True" old_x="1400.0" old_y="1300.0" type="right_before_left" weight_num="4.0" weight_sum="1.99856011518" x="1973.99137968" x_displacement_sum="573.991379684" y="1887.12225761" y_displacement_sum="587.122257609" />
    <node avg_slowdown_ratio="0.498740100792" id="node_08x06" junction="True" old_x="800.0" old_y="600.0" type="right_before_left" weight_num="4.0" weight_sum="1.99496040317" x="390.725677742" x_displacement_sum="-409.274322258" y="-18.568487896" y_displacement_sum="-618.568487896" />
    <node avg_slowdown_ratio="0.497480201583" id="node_07x14" junction="True" old_x="700.0" old_y="1400.0" type="right_before_left" weight_num="4.0" weight_sum="1.98992080633" x="480.343133368" x_displacement_sum="-219.656866632" y="1938.84231227" y_displacement_sum="538.842312274" />
    <node avg_slowdown_ratio="0.497300215983" id="node_06x07" junction="True" old_x="600.0" old_y="700.0" type="right_before_left" weight_num="4.0" weight_sum="1.98920086393" x="27.673315282" x_displacement_sum="-572.326684718" y="358.928978231" y_displacement_sum="-341.071021769" />
    <node avg_slowdown_ratio="0.497120230382" id="node_08x15" junction="True" old_x="800.0" old_y="1500.0" type="right_before_left" weight_num="4.0" weight_sum="1.98848092153" x="669.569077821" x_displacement_sum="-130.430922179" y="2084.13018437" y_displacement_sum="584.130184366" />
    <node avg_slowdown_ratio="0.49496040317" id="node_16x11" junction="True" old_x="1600.0" old_y="1100.0" type="right_before_left" weight_num="4.0" weight_sum="1.97984161268" x="2271.77432102" x_displacement_sum="671.774321018" y="1122.79432678" y_displacement_sum="22.7943267762" />
    <node avg_slowdown_ratio="0.493160547158" id="node_10x04" junction="True" old_x="1000.0" old_y="400.0" type="right_before_left" weight_num="4.0" weight_sum="1.97264218863" x="994.394696956" x_displacement_sum="-5.60530304365" y="-250.687012955" y_displacement_sum="-650.687012955" />
    <node avg_slowdown_ratio="0.49226061915" id="node_05x13" junction="True" old_x="500.0" old_y="1300.0" type="right_before_left" weight_num="4.0" weight_sum="1.9690424766" x="-0.573836652" x_displacement_sum="-500.573836652" y="1540.59735365" y_displacement_sum="240.597353645" />
    <node avg_slowdown_ratio="0.487580993523" id="node_13x15" junction="True" old_x="1300.0" old_y="1500.0" type="right_before_left" weight_num="4.0" weight_sum="1.95032397409" x="1592.34534667" x_displacement_sum="292.345346668" y="2106.2984968" y_displacement_sum="606.298496797" />
    <node avg_slowdown_ratio="0.486501079915" id="node_07x15" junction="True" old_x="700.0" old_y="1500.0" type="right_before_left" weight_num="4.0" weight_sum="1.94600431966" x="596.174094525" x_displacement_sum="-103.825905475" y="1989.57024903" y_displacement_sum="489.570249032" />
    <node avg_slowdown_ratio="0.486141108712" id="node_09x06" junction="True" old_x="900.0" old_y="600.0" type="right_before_left" weight_num="4.0" weight_sum="1.94456443485" x="673.136639465" x_displacement_sum="-226.863360535" y="-32.691801567" y_displacement_sum="-632.691801567" />
    <node avg_slowdown_ratio="0.486141108712" id="node_11x15" junction="True" old_x="1100.0" old_y="1500.0" type="right_before_left" weight_num="4.0" weight_sum="1.94456443485" x="1172.98799818" x_displacement_sum="72.9879981846" y="2231.93369464" y_displacement_sum="731.933694641" />
    <node avg_slowdown_ratio="0.48614110871" id="node_07x07" junction="True" old_x="700.0" old_y="700.0" type="right_before_left" weight_num="4.0" weight_sum="1.94456443484" x="138.205638584" x_displacement_sum="-561.794361416" y="258.668460681" y_displacement_sum="-441.331539319" />
    <node avg_slowdown_ratio="0.4843412527" id="node_09x15" junction="True" old_x="900.0" old_y="1500.0" type="right_before_left" weight_num="4.0" weight_sum="1.9373650108" x="845.0537593" x_displacement_sum="-54.9462406999" y="2129.87448418" y_displacement_sum="629.874484181" />
    <node avg_slowdown_ratio="0.48164146868" id="node_13x05" junction="True" old_x="1300.0" old_y="500.0" type="right_before_left" weight_num="4.0" weight_sum="1.92656587472" x="1671.24863484" x_displacement_sum="371.248634845" y="-45.645969825" y_displacement_sum="-545.645969825" />
    <node avg_slowdown_ratio="0.480381569475" id="node_10x14" junction="True" old_x="1000.0" old_y="1400.0" type="right_before_left" weight_num="4.0" weight_sum="1.9215262779" x="937.653096007" x_displacement_sum="-62.3469039935" y="2208.8697058" y_displacement_sum="808.869705796" />
    <node avg_slowdown_ratio="0.480201583873" id="node_04x07" junction="True" old_x="400.0" old_y="700.0" type="right_before_left" weight_num="4.0" weight_sum="1.92080633549" x="-48.442339593" x_displacement_sum="-448.442339593" y="588.285202673" y_displacement_sum="-111.714797327" />
    <node avg_slowdown_ratio="0.479301655868" id="node_09x05" junction="True" old_x="900.0" old_y="500.0" type="right_before_left" weight_num="4.0" weight_sum="1.91720662347" x="682.326916412" x_displacement_sum="-217.673083588" y="-168.600231305" y_displacement_sum="-668.600231305" />
    <node avg_slowdown_ratio="0.47822174226" id="node_12x15" junction="True" old_x="1200.0" old_y="1500.0" type="right_before_left" weight_num="4.0" weight_sum="1.91288696904" x="1401.07893367" x_displacement_sum="201.078933669" y="2198.09925673" y_displacement_sum="698.099256734" />
    <node avg_slowdown_ratio="0.47660187185" id="node_05x07" junction="True" old_x="500.0" old_y="700.0" type="right_before_left" weight_num="4.0" weight_sum="1.9064074874" x="-45.397818622" x_displacement_sum="-545.397818622" y="476.248108069" y_displacement_sum="-223.751891931" />
    <node avg_slowdown_ratio="0.475881929445" id="node_08x14" junction="True" old_x="800.0" old_y="1400.0" type="right_before_left" weight_num="4.0" weight_sum="1.90352771778" x="568.39132312" x_displacement_sum="-231.60867688" y="2046.77410162" y_displacement_sum="646.774101624" />
    <node avg_slowdown_ratio="0.47516198704" id="node_16x12" junction="True" old_x="1600.0" old_y="1200.0" type="right_before_left" weight_num="4.0" weight_sum="1.90064794816" x="2234.47908971" x_displacement_sum="634.479089706" y="1424.21137607" y_displacement_sum="224.211376067" />
    <node avg_slowdown_ratio="0.473902087835" id="node_12x14" junction="True" old_x="1200.0" old_y="1400.0" type="right_before_left" weight_num="4.0" weight_sum="1.89560835134" x="1463.66209617" x_displacement_sum="263.66209617" y="2181.64251137" y_displacement_sum="781.642511367" />
    <node avg_slowdown_ratio="0.473902087832" id="node_13x14" junction="True" old_x="1300.0" old_y="1400.0" type="right_before_left" weight_num="4.0" weight_sum="1.89560835133" x="1693.6964436" x_displacement_sum="393.696443598" y="2136.80856668" y_displacement_sum="736.808566683" />
    <node avg_slowdown_ratio="0.472642188628" id="node_13x04" junction="True" old_x="1300.0" old_y="400.0" type="right_before_left" weight_num="4.0" weight_sum="1.89056875451" x="1505.18188297" x_displacement_sum="205.181882969" y="-57.263447564" y_displacement_sum="-457.263447564" />
    <node avg_slowdown_ratio="0.47210223182" id="node_05x14" junction="True" old_x="500.0" old_y="1400.0" type="right_before_left" weight_num="4.0" weight_sum="1.88840892728" x="91.853559075" x_displacement_sum="-408.146440925" y="1727.01793355" y_displacement_sum="327.017933552" />
    <node avg_slowdown_ratio="0.47210223182" id="node_06x15" junction="True" old_x="600.0" old_y="1500.0" type="right_before_left" weight_num="4.0" weight_sum="1.88840892728" x="407.712725724" x_displacement_sum="-192.287274276" y="1935.95810332" y_displacement_sum="435.958103319" />
    <node avg_slowdown_ratio="0.468142548597" id="node_04x11" junction="True" old_x="400.0" old_y="1100.0" type="right_before_left" weight_num="4.0" weight_sum="1.87257019439" x="-190.866558612" x_displacement_sum="-590.866558612" y="1047.73265259" y_displacement_sum="-52.2673474076" />
    <node avg_slowdown_ratio="0.467602591793" id="node_15x07" junction="True" old_x="1500.0" old_y="700.0" type="right_before_left" weight_num="4.0" weight_sum="1.87041036717" x="1976.90354648" x_displacement_sum="476.903546478" y="417.861749136" y_displacement_sum="-282.138250864" />