<?xml version='1.0' encoding='UTF-8'?>
<nodes xmlns:xsi="http://www.w3.org/2001/XMLSchema-instance" version="0.27" xsi:noNamespaceSchemaLocation="http://sumo.dlr.de/xsd/edges_file.xsd"><node avg_slowdown_ratio="0.71382289417" id="node_12x10" junction="True" old_x="1200.0" old_y="1000.0" type="right_before_left" weight_num="4.0" weight_sum="2.85529157668" x="1223.05149908" x_displacement_sum="23.0514990766" y="975.749872189" y_displacement_sum="-24.2501278115" />
    <node avg_slowdown_ratio="0.711663066955" id="node_12x11" junction="True" old_x="1200.0" old_y="1100.0" type="right_before_left" weight_num="4.0" weight_sum="2.84665226782" x="1226.83908591" x_displacement_sum="26.8390859142" y="1117.11850026" y_displacement_sum="17.1185002573" />
    <node avg_slowdown_ratio="0.710043196545" id="node_10x08" junction="True" old_x="1000.0" old_y="800.0" type="right_before_left" weight_num="4.0" weight_sum="2.84017278618" x="1002.29110661" x_displacement_sum="2.29110661241" y="803.167501349" y_displacement_sum="3.16750134884" />
    <node avg_slowdown_ratio="0.674046076315" id="node_11x11" junction="True" old_x="1100.0" old_y="1100.0" type="right_before_left" weight_num="4.0" weight_sum="2.69618430526" x="1073.39074485" x_displacement_sum="-26.6092551471" y="1112.77953132" y_displacement_sum="12.7795313169" />
    <node avg_slowdown_ratio="0.65172786177" id="node_10x07" junction="True" old_x="1000.0" old_y="700.0" type="right_before_left" weight_num="4.0" weight_sum="2.60691144708" x="1008.78507726" x_displacement_sum="8.78507725688" y="659.54140439" y_displacement_sum="-40.4585956103" />
    <node avg_slowdown_ratio="0.649028077753" id="node_10x09" junction="True" old_x="1000.0" old_y="900.0" type="right_before_left" weight_num="4.0" weight_sum="2.59611231101" x="983.813148455" x_displacement_sum="-16.1868515452" y="910.710292237" y_displacement_sum="10.7102922368" />
    <node avg_slowdown_ratio="0.645968322535" id="node_11x10" junction="True" old_x="1100.0" old_y="1000.0" type="right_before_left" weight_num="4.0" weight_sum="2.58387329014" x="1079.815748" x_displacement_sum="-20.1842520043" y="983.890058418" y_displacement_sum="-16.1099415819" />
    <node avg_slowdown_ratio="0.641828653707" id="node_12x12" junction="True" old_x="1200.0" old_y="1200.0" type="right_before_left" weight_num="4.0" weight_sum="2.56731461483" x="1227.08193599" x_displacement_sum="27.0819359866" y="1242.09769901" y_displacement_sum="42.0976990124" />
    <node avg_slowdown_ratio="0.640568754497" id="node_11x12" junction="True" old_x="1100.0" old_y="1200.0" type="right_before_left" weight_num="4.0" weight_sum="2.56227501799" x="1086.63227039" x_displacement_sum="-13.3677296137" y="1243.95660616" y_displacement_sum="43.9566061553" />
    <node avg_slowdown_ratio="0.638048956085" id="node_12x09" junction="True" old_x="1200.0" old_y="900.0" type="right_before_left" weight_num="4.0" weight_sum="2.55219582434" x="1220.34596991" x_displacement_sum="20.3459699126" y="870.752536181" y_displacement_sum="-29.2474638189" />
    <node avg_slowdown_ratio="0.632109431245" id="node_10x11" junction="True" old_x="1000.0" old_y="1100.0" type="right_before_left" weight_num="4.0" weight_sum="2.52843772498" x="971.333129494" x_displacement_sum="-28.666870506" y="1101.09025625" y_displacement_sum="1.09025624971" />
    <node avg_slowdown_ratio="0.628329733622" id="node_08x07" junction="True" old_x="800.0" old_y="700.0" type="right_before_left" weight_num="4.0" weight_sum="2.51331893449" x="775.620015713" x_displacement_sum="-24.3799842875" y="665.320254836" y_displacement_sum="-34.6797451642" />
    <node avg_slowdown_ratio="0.624730021598" id="node_10x10" junction="True" old_x="1000.0" old_y="1000.0" type="right_before_left" weight_num="4.0" weight_sum="2.49892008639" x="971.60684464" x_displacement_sum="-28.39315536" y="987.13525774" y_displacement_sum="-12.8647422601" />
    <node avg_slowdown_ratio="0.621310295175" id="node_09x07" junction="True" old_x="900.0" old_y="700.0" type="right_before_left" weight_num="4.0" weight_sum="2.4852411807" x="882.720854455" x_displacement_sum="-17.2791455446" y="647.643557415" y_displacement_sum="-52.3564425848" />
    <node avg_slowdown_ratio="0.620230381567" id="node_09x08" junction="True" old_x="900.0" old_y="800.0" type="right_before_left" weight_num="4.0" weight_sum="2.48092152627" x="875.312717119" x_displacement_sum="-24.6872828814" y="815.78831113" y_displacement_sum="15.7883111304" />
    <node avg_slowdown_ratio="0.613750899927" id="node_13x10" junction="True" old_x="1300.0" old_y="1000.0" type="right_before_left" weight_num="4.0" weight_sum="2.45500359971" x="1350.63176811" x_displacement_sum="50.6317681132" y="983.054542752" y_displacement_sum="-16.9454572481" />
    <node avg_slowdown_ratio="0.613390928728" id="node_10x12" junction="True" old_x="1000.0" old_y="1200.0" type="right_before_left" weight_num="4.0" weight_sum="2.45356371491" x="978.10896903" x_displacement_sum="-21.8910309698" y="1227.56683099" y_displacement_sum="27.5668309942" />
    <node avg_slowdown_ratio="0.613030957525" id="node_08x08" junction="True" old_x="800.0" old_y="800.0" type="right_before_left" weight_num="4.0" weight_sum="2.4521238301" x="795.925871175" x_displacement_sum="-4.07412882515" y="807.562720234" y_displacement_sum="7.5627202335" />
    <node avg_slowdown_ratio="0.61069114471" id="node_11x08" junction="True" old_x="1100.0" old_y="800.0" type="right_before_left" weight_num="4.0" weight_sum="2.44276457884" x="1130.91270047" x_displacement_sum="30.9127004697" y="782.793495063" y_displacement_sum="-17.206504937" />
    <node avg_slowdown_ratio="0.6094312455" id="node_11x09" junction="True" old_x="1100.0" old_y="900.0" type="right_before_left" weight_num="4.0" weight_sum="2.437724982" x="1106.98628151" x_displacement_sum="6.98628150882" y="888.766944219" y_displacement_sum="-11.2330557815" />
    <node avg_slowdown_ratio="0.60781137509" id="node_07x09" junction="True" old_x="700.0" old_y="900.0" type="right_before_left" weight_num="4.0" weight_sum="2.43124550036" x="674.34541891" x_displacement_sum="-25.6545810904" y="910.541830717" y_displacement_sum="10.5418307167" />
    <node avg_slowdown_ratio="0.60637149028" id="node_07x08" junction="True" old_x="700.0" old_y="800.0" type="right_before_left" weight_num="4.0" weight_sum="2.42548596112" x="670.889032053" x_displacement_sum="-29.110967947" y="786.05259072" y_displacement_sum="-13.9474092797" />
    <node avg_slowdown_ratio="0.60025197984" id="node_13x11" junction="True" old_x="1300.0" old_y="1100.0" type="right_before_left" weight_num="4.0" weight_sum="2.40100791936" x="1359.13812505" x_displacement_sum="59.1381250473" y="1122.89122152" y_displacement_sum="22.891221515" />
    <node avg_slowdown_ratio="0.59521238301" id="node_09x11" junction="True" old_x="900.0" old_y="1100.0" type="right_before_left" weight_num="4.0" weight_sum="2.38084953204" x="878.17306542" x_displacement_sum="-21.8269345799" y="1103.30111404" y_displacement_sum="3.30111403988" />
    <node avg_slowdown_ratio="0.589632829375" id="node_09x12" junction="True" old_x="900.0" old_y="1200.0" type="right_before_left" weight_num="4.0" weight_sum="2.3585313175" x="886.295910993" x_displacement_sum="-13.7040890074" y="1217.35228017" y_displacement_sum="17.3522801709" />
    <node avg_slowdown_ratio="0.589452843772" id="node_08x09" junction="True" old_x="800.0" old_y="900.0" type="right_before_left" weight_num="4.0" weight_sum="2.35781137509" x="803.108727085" x_displacement_sum="3.10872708492" y="916.85450272" y_displacement_sum="16.8545027201" />
    <node avg_slowdown_ratio="0.58747300216" id="node_12x08" junction="True" old_x="1200.0" old_y="800.0" type="right_before_left" weight_num="4.0" weight_sum="2.34989200864" x="1221.5748548" x_displacement_sum="21.5748548048" y="773.554128707" y_displacement_sum="-26.4458712932" />
    <node avg_slowdown_ratio="0.58603311735" id="node_08x13" junction="True" old_x="800.0" old_y="1300.0" type="right_before_left" weight_num="4.0" weight_sum="2.3441324694" x="802.680547927" x_displacement_sum="2.68054792675" y="1319.48293415" y_displacement_sum="19.4829341482" />
    <node avg_slowdown_ratio="0.585673146147" id="node_07x13" junction="True" old_x="700.0" old_y="1300.0" type="right_before_left" weight_num="4.0" weight_sum="2.34269258459" x="698.595682286" x_displacement_sum="-1.40431771401" y="1307.87684629" y_displacement_sum="7.87684628705" />
    <node avg_slowdown_ratio="0.585673146147" id="node_08x11" junction="True" old_x="800.0" old_y="1100.0" type="right_before_left" weight_num="4.0" weight_sum="2.34269258459" x="792.194420672" x_displacement_sum="-7.80557932824" y="1102.85535829" y_displacement_sum="2.85535829103" />
    <node avg_slowdown_ratio="0.583873290138" id="node_14x10" junction="True" old_x="1400.0" old_y="1000.0" type="right_before_left" weight_num="4.0" weight_sum="2.33549316055" x="1421.89391171" x_displacement_sum="21.8939117106" y="983.829649919" y_displacement_sum="-16.1703500807" />
    <node avg_slowdown_ratio="0.58279337653" id="node_07x11" junction="True" old_x="700.0" old_y="1100.0" type="right_before_left" weight_num="4.0" weight_sum="2.33117350612" x="693.318107534" x_displacement_sum="-6.68189246641" y="1107.48990724" y_displacement_sum="7.48990724197" />
    <node avg_slowdown_ratio="0.582253419725" id="node_09x10" junction="True" old_x="900.0" old_y="1000.0" type="right_before_left" weight_num="4.0" weight_sum="2.3290136789" x="876.624920134" x_displacement_sum="-23.3750798663" y="997.830909758" y_displacement_sum="-2.16909024242" />
    <node avg_slowdown_ratio="0.581173506122" id="node_11x13" junction="True" old_x="1100.0" old_y="1300.0" type="right_before_left" weight_num="4.0" weight_sum="2.32469402449" x="1100.03449226" x_displacement_sum="0.0344922607375" y="1337.6373473" y_displacement_sum="37.6373472974" />
    <node avg_slowdown_ratio="0.580453563715" id="node_08x10" junction="True" old_x="800.0" old_y="1000.0" type="right_before_left" weight_num="4.0" weight_sum="2.32181425486" x="803.451033443" x_displacement_sum="3.45103344283" y="999.66493472" y_displacement_sum="-0.33506528028" />
    <node avg_slowdown_ratio="0.57667386609" id="node_06x13" junction="True" old_x="600.0" old_y="1300.0" type="right_before_left" weight_num="4.0" weight_sum="2.30669546436" x="584.078068338" x_displacement_sum="-15.9219316618" y="1320.66828229" y_displacement_sum="20.6682822913" />
    <node avg_slowdown_ratio="0.576313894887" id="node_10x13" junction="True" old_x="1000.0" old_y="1300.0" type="right_before_left" weight_num="4.0" weight_sum="2.30525557955" x="985.622298129" x_displacement_sum="-14.3777018707" y="1338.72850678" y_displacement_sum="38.7285067785" />
    <node avg_slowdown_ratio="0.571634269255" id="node_07x10" junction="True" old_x="700.0" old_y="1000.0" type="right_before_left" weight_num="4.0" weight_sum="2.28653707702" x="684.430888747" x_displacement_sum="-15.5691112528" y="1004.24560147" y_displacement_sum="4.24560146599" />
    <node avg_slowdown_ratio="0.570914326852" id="node_11x07" junction="True" old_x="1100.0" old_y="700.0" type="right_before_left" weight_num="4.0" weight_sum="2.28365730741" x="1140.20125673" x_displacement_sum="40.2012567259" y="665.5026005" y_displacement_sum="-34.4973995002" />
    <node avg_slowdown_ratio="0.56119510439" id="node_15x11" junction="True" old_x="1500.0" old_y="1100.0" type="right_before_left" weight_num="4.0" weight_sum="2.24478041756" x="1507.27313513" x_displacement_sum="7.27313513167" y="1099.48207373" y_displacement_sum="-0.5179262689" />
    <node avg_slowdown_ratio="0.560655147588" id="node_08x12" junction="True" old_x="800.0" old_y="1200.0" type="right_before_left" weight_num="4.0" weight_sum="2.24262059035" x="793.746032487" x_displacement_sum="-6.25396751317" y="1204.53792887" y_displacement_sum="4.53792887018" />
    <node avg_slowdown_ratio="0.55957523398" id="node_09x09" junction="True" old_x="900.0" old_y="900.0" type="right_before_left" weight_num="4.0" weight_sum="2.23830093592" x="870.351236939" x_displacement_sum="-29.6487630614" y="923.269852402" y_displacement_sum="23.2698524023" />
    <node avg_slowdown_ratio="0.559035277178" id="node_06x11" junction="True" old_x="600.0" old_y="1100.0" type="right_before_left" weight_num="4.0" weight_sum="2.23614110871" x="588.191276499" x_displacement_sum="-11.8087235005" y="1097.55332685" y_displacement_sum="-2.44667315084" />
    <node avg_slowdown_ratio="0.558135349172" id="node_13x07" junction="True" old_x="1300.0" old_y="700.0" type="right_before_left" weight_num="4.0" weight_sum="2.23254139669" x="1301.87014076" x_displacement_sum="1.87014075766" y="694.743584279" y_displacement_sum="-5.25641572055" />
    <node avg_slowdown_ratio="0.55813534917" id="node_13x09" junction="True" old_x="1300.0" old_y="900.0" type="right_before_left" weight_num="4.0" weight_sum="2.23254139668" x="1352.18785795" x_displacement_sum="52.1878579488" y="864.125914438" y_displacement_sum="-35.8740855623" />
    <node avg_slowdown_ratio="0.55471562275" id="node_11x06" junction="True" old_x="1100.0" old_y="600.0" type="right_before_left" weight_num="4.0" weight_sum="2.218862491" x="1119.37528116" x_displacement_sum="19.3752811554" y="574.554717326" y_displacement_sum="-25.4452826736" />
    <node avg_slowdown_ratio="0.551835853133" id="node_06x12" junction="True" old_x="600.0" old_y="1200.0" type="right_before_left" weight_num="4.0" weight_sum="2.20734341253" x="586.666964874" x_displacement_sum="-13.3330351256" y="1196.75332139" y_displacement_sum="-3.24667861391" />
    <node avg_slowdown_ratio="0.550755939528" id="node_13x12" junction="True" old_x="1300.0" old_y="1200.0" type="right_before_left" weight_num="4.0" weight_sum="2.20302375811" x="1341.8775919" x_displacement_sum="41.8775919028" y="1231.59091406" y_displacement_sum="31.5909140628" />
    <node avg_slowdown_ratio="0.547876169907" id="node_12x13" junction="True" old_x="1200.0" old_y="1300.0" type="right_before_left" weight_num="4.0" weight_sum="2.19150467963" x="1218.6124266" x_displacement_sum="18.612426598" y="1339.62561462" y_displacement_sum="39.6256146192" />
    <node avg_slowdown_ratio="0.54247660187" id="node_09x13" junction="True" old_x="900.0" old_y="1300.0" type="right_before_left" weight_num="4.0" weight_sum="2.16990640748" x="893.380320406" x_displacement_sum="-6.61967959373" y="1329.63077431" y_displacement_sum="29.630774307" />
    <node avg_slowdown_ratio="0.541936645067" id="node_13x13" junction="True" old_x="1300.0" old_y="1300.0" type="right_before_left" weight_num="4.0" weight_sum="2.16774658027" x="1321.13918509" x_displacement_sum="21.1391850857" y="1326.70365307" y_displacement_sum="26.7036530723" />
    <node avg_slowdown_ratio="0.541216702665" id="node_07x12" junction="True" old_x="700.0" old_y="1200.0" type="right_before_left" weight_num="4.0" weight_sum="2.16486681066" x="693.495398761" x_displacement_sum="-6.50460123934" y="1197.58656352" y_displacement_sum="-2.41343647661" />
    <node avg_slowdown_ratio="0.537796976243" id="node_10x05" junction="True" old_x="1000.0" old_y="500.0" type="right_before_left" weight_num="4.0" weight_sum="2.15118790497" x="995.123463797" x_displacement_sum="-4.87653620303" y="492.456248889" y_displacement_sum="-7.54375111129" />
    <node avg_slowdown_ratio="0.53437724982" id="node_10x06" junction="True" old_x="1000.0" old_y="600.0" type="right_before_left" weight_num="4.0" weight_sum="2.13750899928" x="996.110165654" x_displacement_sum="-3.88983434618" y="573.21869878" y_displacement_sum="-26.7813012197" />
    <node avg_slowdown_ratio="0.533837293015" id="node_15x12" junction="True" old_x="1500.0" old_y="1200.0" type="right_before_left" weight_num="4.0" weight_sum="2.13534917206" x="1507.68363141" x_displacement_sum="7.68363140945" y="1223.10620611" y_displacement_sum="23.1062061088" />
    <node avg_slowdown_ratio="0.531137508998" id="node_06x10" junction="True" old_x="600.0" old_y="1000.0" type="right_before_left" weight_num="4.0" weight_sum="2.12455003599" x="570.968084008" x_displacement_sum="-29.0319159921" y="993.796340337" y_displacement_sum="-6.2036596627" />
    <node avg_slowdown_ratio="0.528977681788" id="node_12x04" junction="True" old_x="1200.0" old_y="400.0" type="right_before_left" weight_num="4.0" weight_sum="2.11591072715" x="1206.47065036" x_displacement_sum="6.47065036324" y="391.174999523" y_displacement_sum="-8.82500047704" />
    <node avg_slowdown_ratio="0.526997840175" id="node_11x14" junction="True" old_x="1100.0" old_y="1400.0" type="right_before_left" weight_num="4.0" weight_sum="2.1079913607" x="1103.17783729" x_displacement_sum="3.17783729317" y="1418.31369887" y_displacement_sum="18.3136988667" />
    <node avg_slowdown_ratio="0.52609791217" id="node_13x08" junction="True" old_x="1300.0" old_y="800.0" type="right_before_left" weight_num="4.0" weight_sum="2.10439164868" x="1323.14438448" x_displacement_sum="23.1443844799" y="788.020121687" y_displacement_sum="-11.9798783135" />
    <node avg_slowdown_ratio="0.52051835853" id="node_06x08" junction="True" old_x="600.0" old_y="800.0" type="right_before_left" weight_num="4.0" weight_sum="2.08207343412" x="563.674766538" x_displacement_sum="-36.3252334622" y="792.382301925" y_displacement_sum="-7.61769807467" />
    <node avg_slowdown_ratio="0.519438444923" id="node_14x07" junction="True" old_x="1400.0" old_y="700.0" type="right_before_left" weight_num="4.0" weight_sum="2.07775377969" x="1416.64393858" x_displacement_sum="16.6439385784" y="696.466440619" y_displacement_sum="-3.53355938118" />
    <node avg_slowdown_ratio="0.519078473723" id="node_14x08" junction="True" old_x="1400.0" old_y="800.0" type="right_before_left" weight_num="4.0" weight_sum="2.07631389489" x="1415.13859896" x_displacement_sum="15.1385989551" y="810.701254877" y_displacement_sum="10.7012548765" />
    <node avg_slowdown_ratio="0.517818574513" id="node_13x06" junction="True" old_x="1300.0" old_y="600.0" type="right_before_left" weight_num="4.0" weight_sum="2.07127429805" x="1300.91864383" x_displacement_sum="0.918643829376" y="586.229206227" y_displacement_sum="-13.7707937728" />
    <node avg_slowdown_ratio="0.51745860331" id="node_05x11" junction="True" old_x="500.0" old_y="1100.0" type="right_before_left" weight_num="4.0" weight_sum="2.06983441324" x="483.324281121" x_displacement_sum="-16.6757188791" y="1092.91377186" y_displacement_sum="-7.08622814321" />
    <node avg_slowdown_ratio="0.516918646507" id="node_14x11" junction="True" old_x="1400.0" old_y="1100.0" type="right_before_left" weight_num="4.0" weight_sum="2.06767458603" x="1414.01131897" x_displacement_sum="14.0113189712" y="1119.51851887" y_displacement_sum="19.5185188715" />
    <node avg_slowdown_ratio="0.514938804897" id="node_14x12" junction="True" old_x="1400.0" old_y="1200.0" type="right_before_left" weight_num="4.0" weight_sum="2.05975521959" x="1408.77224306" x_displacement_sum="8.77224305719" y="1209.13602546" y_displacement_sum="9.13602545857" />
    <node avg_slowdown_ratio="0.513138948885" id="node_15x10" junction="True" old_x="1500.0" old_y="1000.0" type="right_before_left" weight_num="4.0" weight_sum="2.05255579554" x="1525.75238895" x_displacement_sum="25.7523889459" y="981.540155478" y_displacement_sum="-18.4598445221" />
    <node avg_slowdown_ratio="0.508999280057" id="node_12x07" junction="True" old_x="1200.0" old_y="700.0" type="right_before_left" weight_num="4.0" weight_sum="2.03599712023" x="1209.6554149" x_displacement_sum="9.65541490027" y="678.580177454" y_displacement_sum="-21.4198225465" />
    <node avg_slowdown_ratio="0.505579553635" id="node_11x04" junction="True" old_x="1100.0" old_y="400.0" type="right_before_left" weight_num="4.0" weight_sum="2.02231821454" x="1093.39383159" x_displacement_sum="-6.60616840979" y="384.697210768" y_displacement_sum="-15.3027892317" />
    <node avg_slowdown_ratio="0.50485961123" id="node_12x06" junction="True" old_x="1200.0" old_y="600.0" type="right_before_left" weight_num="4.0" weight_sum="2.01943844492" x="1207.24411898" x_displacement_sum="7.24411898215" y="584.262611721" y_displacement_sum="-15.7373882792" />
    <node avg_slowdown_ratio="0.504319654428" id="node_11x05" junction="True" old_x="1100.0" old_y="500.0" type="right_before_left" weight_num="4.0" weight_sum="2.01727861771" x="1119.94130118" x_displacement_sum="19.9413011779" y="491.4234159" y_displacement_sum="-8.57658410023" />
    <node avg_slowdown_ratio="0.502699784018" id="node_05x12" junction="True" old_x="500.0" old_y="1200.0" type="right_before_left" weight_num="4.0" weight_sum="2.01079913607" x="476.278221753" x_displacement_sum="-23.7217782473" y="1202.80722812" y_displacement_sum="2.80722812466" />
    <node avg_slowdown_ratio="0.5" id="node_10x15" junction="True" old_x="1000.0" old_y="1500.0" type="right_before_left" weight_num="4.0" weight_sum="2.0" x="999.642584986" x_displacement_sum="-0.357415013968" y="1505.80383052" y_displacement_sum="5.80383052184" />
    <node avg_slowdown_ratio="0.499999999997" id="node_14x06" junction="True" old_x="1400.0" old_y="600.0" type="right_before_left" weight_num="4.0" weight_sum="1.99999999999" x="1412.87330487" x_displacement_sum="12.8733048737" y="586.91271641" y_displacement_sum="-13.08728359" />
    <node avg_slowdown_ratio="0.499640028798" id="node_06x09" junction="True" old_x="600.0" old_y="900.0" type="right_before_left" weight_num="4.0" weight_sum="1.99856011519" x="557.868547242" x_displacement_sum="-42.1314527575" y="904.012505859" y_displacement_sum="4.0125058586" />
    <node avg_slowdown_ratio="0.499640028795" id="node_14x13" junction="True" old_x="1400.0" old_y="1300.0" type="right_before_left" weight_num="4.0" weight_sum="1.99856011518" x="1419.95123128" x_displacement_sum="19.9512312773" y="1315.4206062" y_displacement_sum="15.4206062046" />
    <node avg_slowdown_ratio="0.498740100792" id="node_08x06" junction="True" old_x="800.0" old_y="600.0" type="right_before_left" weight_num="4.0" weight_sum="1.99496040317" x="782.629740509" x_displacement_sum="-17.3702594907" y="561.450680691" y_displacement_sum="-38.5493193094" />
    <node avg_slowdown_ratio="0.497480201583" id="node_07x14" junction="True" old_x="700.0" old_y="1400.0" type="right_before_left" weight_num="4.0" weight_sum="1.98992080633" x="691.637214235" x_displacement_sum="-8.36278576452" y="1422.5082278" y_displacement_sum="22.5082277976" />
    <node avg_slowdown_ratio="0.497300215983" id="node_06x07" junction="True" old_x="600.0" old_y="700.0" type="right_before_left" weight_num="4.0" weight_sum="1.98920086393" x="591.150386496" x_displacement_sum="-8.84961350429" y="679.823443137" y_displacement_sum="-20.1765568633" />
    <node avg_slowdown_ratio="0.497120230382" id="node_08x15" junction="True" old_x="800.0" old_y="1500.0" type="right_before_left" weight_num="4.0" weight_sum="1.98848092153" x="800.428678407" x_displacement_sum="0.428678406568" y="1516.90136097" y_displacement_sum="16.901360967" />
    <node avg_slowdown_ratio="0.49496040317" id="node_16x11" junction="True" old_x="1600.0" old_y="1100.0" type="right_before_left" weight_num="4.0" weight_sum="1.97984161268" x="1626.28576232" x_displacement_sum="26.2857623177" y="1093.31269125" y_displacement_sum="-6.68730874757" />
    <node avg_slowdown_ratio="0.493160547158" id="node_10x04" junction="True" old_x="1000.0" old_y="400.0" type="right_before_left" weight_num="4.0" weight_sum="1.97264218863" x="989.925025506" x_displacement_sum="-10.074974494" y="380.222002056" y_displacement_sum="-19.7779979437" />
    <node avg_slowdown_ratio="0.49226061915" id="node_05x13" junction="True" old_x="500.0" old_y="1300.0" type="right_before_left" weight_num="4.0" weight_sum="1.9690424766" x="477.81981583" x_displacement_sum="-22.1801841701" y="1306.04015247" y_displacement_sum="6.04015246948" />
    <node avg_slowdown_ratio="0.487580993523" id="node_13x15" junction="True" old_x="1300.0" old_y="1500.0" type="right_before_left" weight_num="4.0" weight_sum="1.95032397409" x="1308.40013632" x_displacement_sum="8.40013632112" y="1516.79303483" y_displacement_sum="16.7930348293" />
    <node avg_slowdown_ratio="0.486501079915" id="node_07x15" junction="True" old_x="700.0" old_y="1500.0" type="right_before_left" weight_num="4.0" weight_sum="1.94600431966" x="695.0222714" x_displacement_sum="-4.97772859998" y="1512.23713576" y_displacement_sum="12.2371357642" />
    <node avg_slowdown_ratio="0.486141108712" id="node_09x06" junction="True" old_x="900.0" old_y="600.0" type="right_before_left" weight_num="4.0" weight_sum="1.94456443485" x="889.930048636" x_displacement_sum="-10.0699513644" y="551.967828418" y_displacement_sum="-48.0321715817" />
    <node avg_slowdown_ratio="0.486141108712" id="node_11x15" junction="True" old_x="1100.0" old_y="1500.0" type="right_before_left" weight_num="4.0" weight_sum="1.94456443485" x="1104.2777604" x_displacement_sum="4.27776040146" y="1516.97386563" y_displacement_sum="16.9738656314" />
    <node avg_slowdown_ratio="0.48614110871" id="node_07x07" junction="True" old_x="700.0" old_y="700.0" type="right_before_left" weight_num="4.0" weight_sum="1.94456443484" x="671.093439127" x_displacement_sum="-28.9065608732" y="663.863048187" y_displacement_sum="-36.1369518128" />
    <node avg_slowdown_ratio="0.4843412527" id="node_09x15" junction="True" old_x="900.0" old_y="1500.0" type="right_before_left" weight_num="4.0" weight_sum="1.9373650108" x="899.44952213" x_displacement_sum="-0.550477870311" y="1514.44735306" y_displacement_sum="14.4473530576" />
    <node avg_slowdown_ratio="0.48164146868" id="node_13x05" junction="True" old_x="1300.0" old_y="500.0" type="right_before_left" weight_num="4.0" weight_sum="1.92656587472" x="1296.36269496" x_displacement_sum="-3.63730503846" y="491.276808436" y_displacement_sum="-8.72319156444" />
    <node avg_slowdown_ratio="0.480381569475" id="node_10x14" junction="True" old_x="1000.0" old_y="1400.0" type="right_before_left" weight_num="4.0" weight_sum="1.9215262779" x="985.819060537" x_displacement_sum="-14.1809394627" y="1415.72679328" y_displacement_sum="15.7267932795" />
    <node avg_slowdown_ratio="0.480201583873" id="node_04x07" junction="True" old_x="400.0" old_y="700.0" type="right_before_left" weight_num="4.0" weight_sum="1.92080633549" x="382.655441563" x_displacement_sum="-17.3445584367" y="688.937484813" y_displacement_sum="-11.0625151869" />
    <node avg_slowdown_ratio="0.479301655868" id="node_09x05" junction="True" old_x="900.0" old_y="500.0" type="right_before_left" weight_num="4.0" weight_sum="1.91720662347" x="884.357597096" x_displacement_sum="-15.6424029042" y="493.670041914" y_displacement_sum="-6.32995808573" />
    <node avg_slowdown_ratio="0.47822174226" id="node_12x15" junction="True" old_x="1200.0" old_y="1500.0" type="right_before_left" weight_num="4.0" weight_sum="1.91288696904" x="1199.71538468" x_displacement_sum="-0.284615319084" y="1513.40567602" y_displacement_sum="13.4056760209" />
    <node avg_slowdown_ratio="0.47660187185" id="node_05x07" junction="True" old_x="500.0" old_y="700.0" type="right_before_left" weight_num="4.0" weight_sum="1.9064074874" x="496.638126094" x_displacement_sum="-3.36187390593" y="689.796994206" y_displacement_sum="-10.2030057939" />
    <node avg_slowdown_ratio="0.475881929445" id="node_08x14" junction="True" old_x="800.0" old_y="1400.0" type="right_before_left" weight_num="4.0" weight_sum="1.90352771778" x="809.526226119" x_displacement_sum="9.52622611918" y="1418.50689259" y_displacement_sum="18.5068925948" />
    <node avg_slowdown_ratio="0.47516198704" id="node_16x12" junction="True" old_x="1600.0" old_y="1200.0" type="right_before_left" weight_num="4.0" weight_sum="1.90064794816" x="1622.0868437" x_displacement_sum="22.0868437032" y="1217.20731689" y_displacement_sum="17.2073168943" />
    <node avg_slowdown_ratio="0.473902087835" id="node_12x14" junction="True" old_x="1200.0" old_y="1400.0" type="right_before_left" weight_num="4.0" weight_sum="1.89560835134" x="1212.80245699" x_displacement_sum="12.8024569932" y="1415.48722974" y_displacement_sum="15.4872297377" />
    <node avg_slowdown_ratio="0.473902087832" id="node_13x14" junction="True" old_x="1300.0" old_y="1400.0" type="right_before_left" weight_num="4.0" weight_sum="1.89560835133" x="1307.47907409" x_displacement_sum="7.47907408838" y="1409.92361973" y_displacement_sum="9.92361972677" />
    <node avg_slowdown_ratio="0.472642188628" id="node_13x04" junction="True" old_x="1300.0" old_y="400.0" type="right_before_left" weight_num="4.0" weight_sum="1.89056875451" x="1327.24253091" x_displacement_sum="27.2425309106" y="381.637129701" y_displacement_sum="-18.3628702985" />
    <node avg_slowdown_ratio="0.47210223182" id="node_05x14" junction="True" old_x="500.0" old_y="1400.0" type="right_before_left" weight_num="4.0" weight_sum="1.88840892728" x="493.759290513" x_displacement_sum="-6.2407094871" y="1413.07110309" y_displacement_sum="13.0711030865" />
    <node avg_slowdown_ratio="0.47210223182" id="node_06x15" junction="True" old_x="600.0" old_y="1500.0" type="right_before_left" weight_num="4.0" weight_sum="1.88840892728" x="589.982846824" x_displacement_sum="-10.0171531757" y="1509.34303388" y_displacement_sum="9.34303387868" />
    <node avg_slowdown_ratio="0.468142548597" id="node_04x11" junction="True" old_x="400.0" old_y="1100.0" type="right_before_left" weight_num="4.0" weight_sum="1.87257019439" x="379.360793964" x_displacement_sum="-20.6392060356" y="1099.63354685" y_displacement_sum="-0.366453149998" />
    <node avg_slowdown_ratio="0.467602591793" id="node_15x07" junction="True" old_x="1500.0" old_y="700.0" type="right_before_left" weight_num="4.0" weight_sum="1.87041036717" x="1514.30815583" x_displacement_sum="14.3081558266" y="700.786295551" y_displacement_sum="0.78629555096" />