<?xml version='1.0' encoding='UTF-8'?>
<nodes xmlns:xsi="http://www.w3.org/2001/XMLSchema-instance" version="0.27" xsi:noNamespaceSchemaLocation="http://sumo.dlr.de/xsd/edges_file.xsd"><node avg_slowdown_ratio="0.71382289417" id="node_12x10" junction="True" old_x="1200.0" old_y="1000.0" type="right_before_left" weight_num="4.0" weight_sum="2.85529157668" x="1222.50474981" x_displacement_sum="22.5047498071" y="976.949627459" y_displacement_sum="-23.050372541" />
    <node avg_slowdown_ratio="0.711663066955" id="node_12x11" junction="True" old_x="1200.0" old_y="1100.0" type="right_before_left" weight_num="4.0" weight_sum="2.84665226782" x="1226.85349909" x_displacement_sum="26.8534990941" y="1117.80236732" y_displacement_sum="17.8023673231" />
    <node avg_slowdown_ratio="0.710043196545" id="node_10x08" junction="True" old_x="1000.0" old_y="800.0" type="right_before_left" weight_num="4.0" weight_sum="2.84017278618" x="1000.94543191" x_displacement_sum="0.945431906211" y="804.014545457" y_displacement_sum="4.01454545679" />
    <node avg_slowdown_ratio="0.674046076315" id="node_11x11" junction="True" old_x="1100.0" old_y="1100.0" type="right_before_left" weight_num="4.0" weight_sum="2.69618430526" x="1076.4621206" x_displacement_sum="-23.5378793986" y="1111.60980754" y_displacement_sum="11.6098075432" />
    <node avg_slowdown_ratio="0.65172786177" id="node_10x07" junction="True" old_x="1000.0" old_y="700.0" type="right_before_left" weight_num="4.0" weight_sum="2.60691144708" x="994.535404422" x_displacement_sum="-5.46459557827" y="647.211454277" y_displacement_sum="-52.7885457235" />
    <node avg_slowdown_ratio="0.649028077753" id="node_10x09" junction="True" old_x="1000.0" old_y="900.0" type="right_before_left" weight_num="4.0" weight_sum="2.59611231101" x="985.427201491" x_displacement_sum="-14.5727985095" y="908.984680971" y_displacement_sum="8.98468097079" />
    <node avg_slowdown_ratio="0.645968322535" id="node_11x10" junction="True" old_x="1100.0" old_y="1000.0" type="right_before_left" weight_num="4.0" weight_sum="2.58387329014" x="1082.54866842" x_displacement_sum="-17.4513315838" y="986.023712627" y_displacement_sum="-13.9762873732" />
    <node avg_slowdown_ratio="0.641828653707" id="node_12x12" junction="True" old_x="1200.0" old_y="1200.0" type="right_before_left" weight_num="4.0" weight_sum="2.56731461483" x="1228.38605246" x_displacement_sum="28.3860524558" y="1255.22224641" y_displacement_sum="55.2222464104" />
    <node avg_slowdown_ratio="0.640568754497" id="node_11x12" junction="True" old_x="1100.0" old_y="1200.0" type="right_before_left" weight_num="4.0" weight_sum="2.56227501799" x="1091.30836242" x_displacement_sum="-8.69163757625" y="1242.98661496" y_displacement_sum="42.9866149648" />
    <node avg_slowdown_ratio="0.638048956085" id="node_12x09" junction="True" old_x="1200.0" old_y="900.0" type="right_before_left" weight_num="4.0" weight_sum="2.55219582434" x="1225.62716344" x_displacement_sum="25.627163437" y="854.017499034" y_displacement_sum="-45.982500966" />
    <node avg_slowdown_ratio="0.632109431245" id="node_10x11" junction="True" old_x="1000.0" old_y="1100.0" type="right_before_left" weight_num="4.0" weight_sum="2.52843772498" x="961.089870532" x_displacement_sum="-38.9101294684" y="1100.83829976" y_displacement_sum="0.838299761805" />
    <node avg_slowdown_ratio="0.628329733622" id="node_08x07" junction="True" old_x="800.0" old_y="700.0" type="right_before_left" weight_num="4.0" weight_sum="2.51331893449" x="775.553698226" x_displacement_sum="-24.4463017737" y="635.534327738" y_displacement_sum="-64.4656722615" />
    <node avg_slowdown_ratio="0.624730021598" id="node_10x10" junction="True" old_x="1000.0" old_y="1000.0" type="right_before_left" weight_num="4.0" weight_sum="2.49892008639" x="959.488007969" x_displacement_sum="-40.5119920309" y="999.258540066" y_displacement_sum="-0.741459934389" />
    <node avg_slowdown_ratio="0.621310295175" id="node_09x07" junction="True" old_x="900.0" old_y="700.0" type="right_before_left" weight_num="4.0" weight_sum="2.4852411807" x="877.570245712" x_displacement_sum="-22.4297542882" y="634.47037634" y_displacement_sum="-65.5296236604" />
    <node avg_slowdown_ratio="0.620230381567" id="node_09x08" junction="True" old_x="900.0" old_y="800.0" type="right_before_left" weight_num="4.0" weight_sum="2.48092152627" x="878.198700649" x_displacement_sum="-21.8012993506" y="814.042564034" y_displacement_sum="14.0425640344" />
    <node avg_slowdown_ratio="0.613750899927" id="node_13x10" junction="True" old_x="1300.0" old_y="1000.0" type="right_before_left" weight_num="4.0" weight_sum="2.45500359971" x="1372.55220258" x_displacement_sum="72.5522025818" y="975.737947558" y_displacement_sum="-24.2620524418" />
    <node avg_slowdown_ratio="0.613390928728" id="node_10x12" junction="True" old_x="1000.0" old_y="1200.0" type="right_before_left" weight_num="4.0" weight_sum="2.45356371491" x="976.095886494" x_displacement_sum="-23.9041135061" y="1229.24998114" y_displacement_sum="29.2499811428" />
    <node avg_slowdown_ratio="0.613030957525" id="node_08x08" junction="True" old_x="800.0" old_y="800.0" type="right_before_left" weight_num="4.0" weight_sum="2.4521238301" x="769.86631041" x_displacement_sum="-30.1336895896" y="792.681252586" y_displacement_sum="-7.31874741406" />
    <node avg_slowdown_ratio="0.61069114471" id="node_11x08" junction="True" old_x="1100.0" old_y="800.0" type="right_before_left" weight_num="4.0" weight_sum="2.44276457884" x="1137.78687787" x_displacement_sum="37.7868778651" y="773.864178603" y_displacement_sum="-26.1358213967" />
    <node avg_slowdown_ratio="0.6094312455" id="node_11x09" junction="True" old_x="1100.0" old_y="900.0" type="right_before_left" weight_num="4.0" weight_sum="2.437724982" x="1106.46445439" x_displacement_sum="6.46445438774" y="887.720569897" y_displacement_sum="-12.2794301032" />
    <node avg_slowdown_ratio="0.60781137509" id="node_07x09" junction="True" old_x="700.0" old_y="900.0" type="right_before_left" weight_num="4.0" weight_sum="2.43124550036" x="662.41723557" x_displacement_sum="-37.5827644297" y="907.509492527" y_displacement_sum="7.50949252705" />
    <node avg_slowdown_ratio="0.60637149028" id="node_07x08" junction="True" old_x="700.0" old_y="800.0" type="right_before_left" weight_num="4.0" weight_sum="2.42548596112" x="648.67375303" x_displacement_sum="-51.3262469704" y="787.802872665" y_displacement_sum="-12.1971273352" />
    <node avg_slowdown_ratio="0.60025197984" id="node_13x11" junction="True" old_x="1300.0" old_y="1100.0" type="right_before_left" weight_num="4.0" weight_sum="2.40100791936" x="1364.25288057" x_displacement_sum="64.2528805745" y="1129.67675295" y_displacement_sum="29.6767529475" />
    <node avg_slowdown_ratio="0.59521238301" id="node_09x11" junction="True" old_x="900.0" old_y="1100.0" type="right_before_left" weight_num="4.0" weight_sum="2.38084953204" x="876.885583166" x_displacement_sum="-23.1144168341" y="1104.11840962" y_displacement_sum="4.1184096247" />
    <node avg_slowdown_ratio="0.589632829375" id="node_09x12" junction="True" old_x="900.0" old_y="1200.0" type="right_before_left" weight_num="4.0" weight_sum="2.3585313175" x="887.814364132" x_displacement_sum="-12.185635868" y="1215.70190242" y_displacement_sum="15.701902419" />
    <node avg_slowdown_ratio="0.589452843772" id="node_08x09" junction="True" old_x="800.0" old_y="900.0" type="right_before_left" weight_num="4.0" weight_sum="2.35781137509" x="802.260300084" x_displacement_sum="2.26030008404" y="915.534917546" y_displacement_sum="15.5349175464" />
    <node avg_slowdown_ratio="0.58747300216" id="node_12x08" junction="True" old_x="1200.0" old_y="800.0" type="right_before_left" weight_num="4.0" weight_sum="2.34989200864" x="1234.56485651" x_displacement_sum="34.5648565058" y="762.995890374" y_displacement_sum="-37.0041096261" />
    <node avg_slowdown_ratio="0.58603311735" id="node_08x13" junction="True" old_x="800.0" old_y="1300.0" type="right_before_left" weight_num="4.0" weight_sum="2.3441324694" x="802.972174646" x_displacement_sum="2.97217464633" y="1343.95277161" y_displacement_sum="43.952771608" />
    <node avg_slowdown_ratio="0.585673146147" id="node_07x13" junction="True" old_x="700.0" old_y="1300.0" type="right_before_left" weight_num="4.0" weight_sum="2.34269258459" x="696.312697009" x_displacement_sum="-3.68730299106" y="1338.81424189" y_displacement_sum="38.814241892" />
    <node avg_slowdown_ratio="0.585673146147" id="node_08x11" junction="True" old_x="800.0" old_y="1100.0" type="right_before_left" weight_num="4.0" weight_sum="2.34269258459" x="788.393823118" x_displacement_sum="-11.6061768815" y="1106.75192552" y_displacement_sum="6.75192552081" />
    <node avg_slowdown_ratio="0.583873290138" id="node_14x10" junction="True" old_x="1400.0" old_y="1000.0" type="right_before_left" weight_num="4.0" weight_sum="2.33549316055" x="1450.61527112" x_displacement_sum="50.615271125" y="966.528832957" y_displacement_sum="-33.4711670425" />
    <node avg_slowdown_ratio="0.58279337653" id="node_07x11" junction="True" old_x="700.0" old_y="1100.0" type="right_before_left" weight_num="4.0" weight_sum="2.33117350612" x="686.294965582" x_displacement_sum="-13.7050344177" y="1103.84854298" y_displacement_sum="3.84854297915" />
    <node avg_slowdown_ratio="0.582253419725" id="node_09x10" junction="True" old_x="900.0" old_y="1000.0" type="right_before_left" weight_num="4.0" weight_sum="2.3290136789" x="878.624417773" x_displacement_sum="-21.3755822268" y="998.388831795" y_displacement_sum="-1.61116820504" />
    <node avg_slowdown_ratio="0.581173506122" id="node_11x13" junction="True" old_x="1100.0" old_y="1300.0" type="right_before_left" weight_num="4.0" weight_sum="2.32469402449" x="1101.07474999" x_displacement_sum="1.07474999059" y="1369.97362244" y_displacement_sum="69.9736224405" />
    <node avg_slowdown_ratio="0.580453563715" id="node_08x10" junction="True" old_x="800.0" old_y="1000.0" type="right_before_left" weight_num="4.0" weight_sum="2.32181425486" x="804.512503126" x_displacement_sum="4.51250312579" y="998.529889021" y_displacement_sum="-1.47011097929" />
    <node avg_slowdown_ratio="0.57667386609" id="node_06x13" junction="True" old_x="600.0" old_y="1300.0" type="right_before_left" weight_num="4.0" weight_sum="2.30669546436" x="573.523465647" x_displacement_sum="-26.476534353" y="1333.1993129" y_displacement_sum="33.1993128987" />
    <node avg_slowdown_ratio="0.576313894887" id="node_10x13" junction="True" old_x="1000.0" old_y="1300.0" type="right_before_left" weight_num="4.0" weight_sum="2.30525557955" x="975.862352005" x_displacement_sum="-24.137647995" y="1360.0511471" y_displacement_sum="60.0511471035" />
    <node avg_slowdown_ratio="0.571634269255" id="node_07x10" junction="True" old_x="700.0" old_y="1000.0" type="right_before_left" weight_num="4.0" weight_sum="2.28653707702" x="672.429108246" x_displacement_sum="-27.5708917544" y="992.593165717" y_displacement_sum="-7.40683428277" />
    <node avg_slowdown_ratio="0.570914326852" id="node_11x07" junction="True" old_x="1100.0" old_y="700.0" type="right_before_left" weight_num="4.0" weight_sum="2.28365730741" x="1141.33786451" x_displacement_sum="41.3378645091" y="651.691609399" y_displacement_sum="-48.3083906005" />
    <node avg_slowdown_ratio="0.56119510439" id="node_15x11" junction="True" old_x="1500.0" old_y="1100.0" type="right_before_left" weight_num="4.0" weight_sum="2.24478041756" x="1532.75756908" x_displacement_sum="32.7575690822" y="1108.22479993" y_displacement_sum="8.22479992542" />
    <node avg_slowdown_ratio="0.560655147588" id="node_08x12" junction="True" old_x="800.0" old_y="1200.0" type="right_before_left" weight_num="4.0" weight_sum="2.24262059035" x="798.847418661" x_displacement_sum="-1.15258133889" y="1208.43887308" y_displacement_sum="8.43887308033" />
    <node avg_slowdown_ratio="0.55957523398" id="node_09x09" junction="True" old_x="900.0" old_y="900.0" type="right_before_left" weight_num="4.0" weight_sum="2.23830093592" x="873.226464202" x_displacement_sum="-26.7735357978" y="921.090232728" y_displacement_sum="21.0902327277" />
    <node avg_slowdown_ratio="0.559035277178" id="node_06x11" junction="True" old_x="600.0" old_y="1100.0" type="right_before_left" weight_num="4.0" weight_sum="2.23614110871" x="564.298970711" x_displacement_sum="-35.7010292886" y="1095.8530811" y_displacement_sum="-4.14691889653" />
    <node avg_slowdown_ratio="0.558135349172" id="node_13x07" junction="True" old_x="1300.0" old_y="700.0" type="right_before_left" weight_num="4.0" weight_sum="2.23254139669" x="1311.32993976" x_displacement_sum="11.3299397647" y="680.155588413" y_displacement_sum="-19.8444115868" />
    <node avg_slowdown_ratio="0.55813534917" id="node_13x09" junction="True" old_x="1300.0" old_y="900.0" type="right_before_left" weight_num="4.0" weight_sum="2.23254139668" x="1355.34078547" x_displacement_sum="55.3407854734" y="859.192539625" y_displacement_sum="-40.8074603749" />
    <node avg_slowdown_ratio="0.55471562275" id="node_11x06" junction="True" old_x="1100.0" old_y="600.0" type="right_before_left" weight_num="4.0" weight_sum="2.218862491" x="1141.44207474" x_displacement_sum="41.4420747363" y="564.176415665" y_displacement_sum="-35.823584335" />
    <node avg_slowdown_ratio="0.551835853133" id="node_06x12" junction="True" old_x="600.0" old_y="1200.0" type="right_before_left" weight_num="4.0" weight_sum="2.20734341253" x="565.273048672" x_displacement_sum="-34.7269513276" y="1202.12851134" y_displacement_sum="2.12851133852" />
    <node avg_slowdown_ratio="0.550755939528" id="node_13x12" junction="True" old_x="1300.0" old_y="1200.0" type="right_before_left" weight_num="4.0" weight_sum="2.20302375811" x="1355.50036466" x_displacement_sum="55.5003646564" y="1235.22309678" y_displacement_sum="35.2230967751" />
    <node avg_slowdown_ratio="0.547876169907" id="node_12x13" junction="True" old_x="1200.0" old_y="1300.0" type="right_before_left" weight_num="4.0" weight_sum="2.19150467963" x="1230.26743786" x_displacement_sum="30.2674378593" y="1370.29718321" y_displacement_sum="70.2971832125" />
    <node avg_slowdown_ratio="0.54247660187" id="node_09x13" junction="True" old_x="900.0" old_y="1300.0" type="right_before_left" weight_num="4.0" weight_sum="2.16990640748" x="891.735746526" x_displacement_sum="-8.2642534741" y="1359.09178801" y_displacement_sum="59.0917880129" />
    <node avg_slowdown_ratio="0.541936645067" id="node_13x13" junction="True" old_x="1300.0" old_y="1300.0" type="right_before_left" weight_num="4.0" weight_sum="2.16774658027" x="1329.20280296" x_displacement_sum="29.2028029624" y="1350.77689813" y_displacement_sum="50.7768981267" />
    <node avg_slowdown_ratio="0.541216702665" id="node_07x12" junction="True" old_x="700.0" old_y="1200.0" type="right_before_left" weight_num="4.0" weight_sum="2.16486681066" x="692.742088002" x_displacement_sum="-7.25791199811" y="1196.57493258" y_displacement_sum="-3.42506742264" />
    <node avg_slowdown_ratio="0.537796976243" id="node_10x05" junction="True" old_x="1000.0" old_y="500.0" type="right_before_left" weight_num="4.0" weight_sum="2.15118790497" x="975.567801702" x_displacement_sum="-24.4321982977" y="481.082167291" y_displacement_sum="-18.9178327087" />
    <node avg_slowdown_ratio="0.53437724982" id="node_10x06" junction="True" old_x="1000.0" old_y="600.0" type="right_before_left" weight_num="4.0" weight_sum="2.13750899928" x="992.031029344" x_displacement_sum="-7.96897065604" y="535.91929372" y_displacement_sum="-64.0807062798" />
    <node avg_slowdown_ratio="0.533837293015" id="node_15x12" junction="True" old_x="1500.0" old_y="1200.0" type="right_before_left" weight_num="4.0" weight_sum="2.13534917206" x="1517.03327967" x_displacement_sum="17.0332796657" y="1229.00914647" y_displacement_sum="29.0091464718" />
    <node avg_slowdown_ratio="0.531137508998" id="node_06x10" junction="True" old_x="600.0" old_y="1000.0" type="right_before_left" weight_num="4.0" weight_sum="2.12455003599" x="546.772135509" x_displacement_sum="-53.2278644909" y="985.544526966" y_displacement_sum="-14.4554730339" />
    <node avg_slowdown_ratio="0.528977681788" id="node_12x04" junction="True" old_x="1200.0" old_y="400.0" type="right_before_left" weight_num="4.0" weight_sum="2.11591072715" x="1210.42798097" x_displacement_sum="10.4279809674" y="373.827067627" y_displacement_sum="-26.1729323726" />
    <node avg_slowdown_ratio="0.526997840175" id="node_11x14" junction="True" old_x="1100.0" old_y="1400.0" type="right_before_left" weight_num="4.0" weight_sum="2.1079913607" x="1110.55034629" x_displacement_sum="10.5503462923" y="1441.88292086" y_displacement_sum="41.8829208582" />
    <node avg_slowdown_ratio="0.52609791217" id="node_13x08" junction="True" old_x="1300.0" old_y="800.0" type="right_before_left" weight_num="4.0" weight_sum="2.10439164868" x="1337.04984546" x_displacement_sum="37.0498454608" y="787.952804305" y_displacement_sum="-12.0471956947" />
    <node avg_slowdown_ratio="0.52051835853" id="node_06x08" junction="True" old_x="600.0" old_y="800.0" type="right_before_left" weight_num="4.0" weight_sum="2.08207343412" x="547.276038188" x_displacement_sum="-52.7239618124" y="778.891419313" y_displacement_sum="-21.1085806873" />
    <node avg_slowdown_ratio="0.519438444923" id="node_14x07" junction="True" old_x="1400.0" old_y="700.0" type="right_before_left" weight_num="4.0" weight_sum="2.07775377969" x="1435.10365707" x_displacement_sum="35.1036570668" y="695.286133286" y_displacement_sum="-4.71386671437" />
    <node avg_slowdown_ratio="0.519078473723" id="node_14x08" junction="True" old_x="1400.0" old_y="800.0" type="right_before_left" weight_num="4.0" weight_sum="2.07631389489" x="1447.14588918" x_displacement_sum="47.1458891828" y="809.639177069" y_displacement_sum="9.63917706942" />
    <node avg_slowdown_ratio="0.517818574513" id="node_13x06" junction="True" old_x="1300.0" old_y="600.0" type="right_before_left" weight_num="4.0" weight_sum="2.07127429805" x="1298.80621205" x_displacement_sum="-1.19378794703" y="570.479560509" y_displacement_sum="-29.5204394905" />
    <node avg_slowdown_ratio="0.51745860331" id="node_05x11" junction="True" old_x="500.0" old_y="1100.0" type="right_before_left" weight_num="4.0" weight_sum="2.06983441324" x="457.672653035" x_displacement_sum="-42.3273469651" y="1089.8386595" y_displacement_sum="-10.1613404951" />
    <node avg_slowdown_ratio="0.516918646507" id="node_14x11" junction="True" old_x="1400.0" old_y="1100.0" type="right_before_left" weight_num="4.0" weight_sum="2.06767458603" x="1438.45156102" x_displacement_sum="38.4515610158" y="1116.3438406" y_displacement_sum="16.3438405953" />
    <node avg_slowdown_ratio="0.514938804897" id="node_14x12" junction="True" old_x="1400.0" old_y="1200.0" type="right_before_left" weight_num="4.0" weight_sum="2.05975521959" x="1422.78072079" x_displacement_sum="22.7807207899" y="1229.97082399" y_displacement_sum="29.9708239924" />
    <node avg_slowdown_ratio="0.513138948885" id="node_15x10" junction="True" old_x="1500.0" old_y="1000.0" type="right_before_left" weight_num="4.0" weight_sum="2.05255579554" x="1527.28103308" x_displacement_sum="27.2810330833" y="969.48963883" y_displacement_sum="-30.5103611704" />
    <node avg_slowdown_ratio="0.508999280057" id="node_12x07" junction="True" old_x="1200.0" old_y="700.0" type="right_before_left" weight_num="4.0" weight_sum="2.03599712023" x="1222.89531211" x_displacement_sum="22.89531211" y="677.227975477" y_displacement_sum="-22.7720245225" />
    <node avg_slowdown_ratio="0.505579553635" id="node_11x04" junction="True" old_x="1100.0" old_y="400.0" type="right_before_left" weight_num="4.0" weight_sum="2.02231821454" x="1107.22722523" x_displacement_sum="7.22722522693" y="372.866912144" y_displacement_sum="-27.1330878558" />
    <node avg_slowdown_ratio="0.50485961123" id="node_12x06" junction="True" old_x="1200.0" old_y="600.0" type="right_before_left" weight_num="4.0" weight_sum="2.01943844492" x="1212.31942205" x_displacement_sum="12.3194220454" y="559.702026998" y_displacement_sum="-40.2979730019" />
    <node avg_slowdown_ratio="0.504319654428" id="node_11x05" junction="True" old_x="1100.0" old_y="500.0" type="right_before_left" weight_num="4.0" weight_sum="2.01727861771" x="1116.71821606" x_displacement_sum="16.7182160558" y="489.12419562" y_displacement_sum="-10.8758043797" />
    <node avg_slowdown_ratio="0.502699784018" id="node_05x12" junction="True" old_x="500.0" old_y="1200.0" type="right_before_left" weight_num="4.0" weight_sum="2.01079913607" x="443.587149431" x_displacement_sum="-56.412850569" y="1201.22119561" y_displacement_sum="1.22119561344" />
    <node avg_slowdown_ratio="0.5" id="node_10x15" junction="True" old_x="1000.0" old_y="1500.0" type="right_before_left" weight_num="4.0" weight_sum="2.0" x="988.574795851" x_displacement_sum="-11.4252041492" y="1516.42151881" y_displacement_sum="16.42151881" />
    <node avg_slowdown_ratio="0.499999999997" id="node_14x06" junction="True" old_x="1400.0" old_y="600.0" type="right_before_left" weight_num="4.0" weight_sum="1.99999999999" x="1430.5296746" x_displacement_sum="30.5296745971" y="573.58026986" y_displacement_sum="-26.4197301398" />
    <node avg_slowdown_ratio="0.499640028798" id="node_06x09" junction="True" old_x="600.0" old_y="900.0" type="right_before_left" weight_num="4.0" weight_sum="1.99856011519" x="525.755569101" x_displacement_sum="-74.2444308986" y="903.96386127" y_displacement_sum="3.96386126953" />
    <node avg_slowdown_ratio="0.499640028795" id="node_14x13" junction="True" old_x="1400.0" old_y="1300.0" type="right_before_left" weight_num="4.0" weight_sum="1.99856011518" x="1421.60715751" x_displacement_sum="21.6071575056" y="1341.32472106" y_displacement_sum="41.3247210646" />
    <node avg_slowdown_ratio="0.498740100792" id="node_08x06" junction="True" old_x="800.0" old_y="600.0" type="right_before_left" weight_num="4.0" weight_sum="1.99496040317" x="767.137258723" x_displacement_sum="-32.8627412771" y="546.015148088" y_displacement_sum="-53.9848519123" />
    <node avg_slowdown_ratio="0.497480201583" id="node_07x14" junction="True" old_x="700.0" old_y="1400.0" type="right_before_left" weight_num="4.0" weight_sum="1.98992080633" x="687.079418122" x_displacement_sum="-12.920581878" y="1450.82209606" y_displacement_sum="50.8220960648" />
    <node avg_slowdown_ratio="0.497300215983" id="node_06x07" junction="True" old_x="600.0" old_y="700.0" type="right_before_left" weight_num="4.0" weight_sum="1.98920086393" x="573.604736397" x_displacement_sum="-26.3952636033" y="663.367902957" y_displacement_sum="-36.6320970433" />
    <node avg_slowdown_ratio="0.497120230382" id="node_08x15" junction="True" old_x="800.0" old_y="1500.0" type="right_before_left" weight_num="4.0" weight_sum="1.98848092153" x="805.766279546" x_displacement_sum="5.76627954564" y="1521.2301489" y_displacement_sum="21.2301489022" />
    <node avg_slowdown_ratio="0.49496040317" id="node_16x11" junction="True" old_x="1600.0" old_y="1100.0" type="right_before_left" weight_num="4.0" weight_sum="1.97984161268" x="1644.58311068" x_displacement_sum="44.5831106817" y="1089.9273052" y_displacement_sum="-10.0726948013" />
    <node avg_slowdown_ratio="0.493160547158" id="node_10x04" junction="True" old_x="1000.0" old_y="400.0" type="right_before_left" weight_num="4.0" weight_sum="1.97264218863" x="985.776209276" x_displacement_sum="-14.223790724" y="373.698590955" y_displacement_sum="-26.3014090446" />
    <node avg_slowdown_ratio="0.49226061915" id="node_05x13" junction="True" old_x="500.0" old_y="1300.0" type="right_before_left" weight_num="4.0" weight_sum="1.9690424766" x="464.648966596" x_displacement_sum="-35.351033404" y="1321.07906554" y_displacement_sum="21.0790655431" />
    <node avg_slowdown_ratio="0.487580993523" id="node_13x15" junction="True" old_x="1300.0" old_y="1500.0" type="right_before_left" weight_num="4.0" weight_sum="1.95032397409" x="1308.27484262" x_displacement_sum="8.27484261935" y="1516.53329746" y_displacement_sum="16.5332974627" />
    <node avg_slowdown_ratio="0.486501079915" id="node_07x15" junction="True" old_x="700.0" old_y="1500.0" type="right_before_left" weight_num="4.0" weight_sum="1.94600431966" x="694.551165694" x_displacement_sum="-5.44883430568" y="1512.15655867" y_displacement_sum="12.1565586706" />
    <node avg_slowdown_ratio="0.486141108712" id="node_09x06" junction="True" old_x="900.0" old_y="600.0" type="right_before_left" weight_num="4.0" weight_sum="1.94456443485" x="877.832949088" x_displacement_sum="-22.1670509115" y="533.329789959" y_displacement_sum="-66.6702100406" />
    <node avg_slowdown_ratio="0.486141108712" id="node_11x15" junction="True" old_x="1100.0" old_y="1500.0" type="right_before_left" weight_num="4.0" weight_sum="1.94456443485" x="1105.21588987" x_displacement_sum="5.21588987436" y="1517.80161562" y_displacement_sum="17.8016156169" />
    <node avg_slowdown_ratio="0.48614110871" id="node_07x07" junction="True" old_x="700.0" old_y="700.0" type="right_before_left" weight_num="4.0" weight_sum="1.94456443484" x="660.490386303" x_displacement_sum="-39.509613697" y="645.175693992" y_displacement_sum="-54.8243060081" />
    <node avg_slowdown_ratio="0.4843412527" id="node_09x15" junction="True" old_x="900.0" old_y="1500.0" type="right_before_left" weight_num="4.0" weight_sum="1.9373650108" x="898.565838032" x_displacement_sum="-1.43416196794" y="1516.40733351" y_displacement_sum="16.4073335055" />
    <node avg_slowdown_ratio="0.48164146868" id="node_13x05" junction="True" old_x="1300.0" old_y="500.0" type="right_before_left" weight_num="4.0" weight_sum="1.92656587472" x="1309.04777092" x_displacement_sum="9.04777091803" y="490.906040396" y_displacement_sum="-9.09395960433" />
    <node avg_slowdown_ratio="0.480381569475" id="node_10x14" junction="True" old_x="1000.0" old_y="1400.0" type="right_before_left" weight_num="4.0" weight_sum="1.9215262779" x="982.640982297" x_displacement_sum="-17.3590177031" y="1440.20370106" y_displacement_sum="40.2037010569" />
    <node avg_slowdown_ratio="0.480201583873" id="node_04x07" junction="True" old_x="400.0" old_y="700.0" type="right_before_left" weight_num="4.0" weight_sum="1.92080633549" x="380.323845145" x_displacement_sum="-19.6761548548" y="689.60338523" y_displacement_sum="-10.3966147703" />
    <node avg_slowdown_ratio="0.479301655868" id="node_09x05" junction="True" old_x="900.0" old_y="500.0" type="right_before_left" weight_num="4.0" weight_sum="1.91720662347" x="874.594089802" x_displacement_sum="-25.405910198" y="480.620911228" y_displacement_sum="-19.3790887725" />
    <node avg_slowdown_ratio="0.47822174226" id="node_12x15" junction="True" old_x="1200.0" old_y="1500.0" type="right_before_left" weight_num="4.0" weight_sum="1.91288696904" x="1210.31656551" x_displacement_sum="10.3165655144" y="1524.14255176" y_displacement_sum="24.1425517626" />
    <node avg_slowdown_ratio="0.47660187185" id="node_05x07" junction="True" old_x="500.0" old_y="700.0" type="right_before_left" weight_num="4.0" weight_sum="1.9064074874" x="487.088796534" x_displacement_sum="-12.911203466" y="676.474847712" y_displacement_sum="-23.5251522876" />
    <node avg_slowdown_ratio="0.475881929445" id="node_08x14" junction="True" old_x="800.0" old_y="1400.0" type="right_before_left" weight_num="4.0" weight_sum="1.90352771778" x="813.350764852" x_displacement_sum="13.3507648516" y="1442.60627991" y_displacement_sum="42.6062799083" />
    <node avg_slowdown_ratio="0.47516198704" id="node_16x12" junction="True" old_x="1600.0" old_y="1200.0" type="right_before_left" weight_num="4.0" weight_sum="1.90064794816" x="1637.38145235" x_displacement_sum="37.3814523511" y="1233.1928863" y_displacement_sum="33.1928863047" />
    <node avg_slowdown_ratio="0.473902087835" id="node_12x14" junction="True" old_x="1200.0" old_y="1400.0" type="right_before_left" weight_num="4.0" weight_sum="1.89560835134" x="1215.53117854" x_displacement_sum="15.5311785401" y="1439.40103586" y_displacement_sum="39.4010358553" />
    <node avg_slowdown_ratio="0.473902087832" id="node_13x14" junction="True" old_x="1300.0" old_y="1400.0" type="right_before_left" weight_num="4.0" weight_sum="1.89560835133" x="1317.45332999" x_displacement_sum="17.4533299892" y="1428.10203524" y_displacement_sum="28.1020352441" />
    <node avg_slowdown_ratio="0.472642188628" id="node_13x04" junction="True" old_x="1300.0" old_y="400.0" type="right_before_left" weight_num="4.0" weight_sum="1.89056875451" x="1331.5021753" x_displacement_sum="31.5021752998" y="381.245826278" y_displacement_sum="-18.7541737217" />
    <node avg_slowdown_ratio="0.47210223182" id="node_05x14" junction="True" old_x="500.0" old_y="1400.0" type="right_before_left" weight_num="4.0" weight_sum="1.88840892728" x="475.909979233" x_displacement_sum="-24.0900207666" y="1429.9689223" y_displacement_sum="29.968922305" />
    <node avg_slowdown_ratio="0.47210223182" id="node_06x15" junction="True" old_x="600.0" old_y="1500.0" type="right_before_left" weight_num="4.0" weight_sum="1.88840892728" x="585.558910625" x_displacement_sum="-14.4410893745" y="1514.38116877" y_displacement_sum="14.3811687697" />
    <node avg_slowdown_ratio="0.468142548597" id="node_04x11" junction="True" old_x="400.0" old_y="1100.0" type="right_before_left" weight_num="4.0" weight_sum="1.87257019439" x="374.636374465" x_displacement_sum="-25.3636255354" y="1093.23803737" y_displacement_sum="-6.76196262682" />
    <node avg_slowdown_ratio="0.467602591793" id="node_15x07" junction="True" old_x="1500.0" old_y="700.0" type="right_before_left" weight_num="4.0" weight_sum="1.87041036717" x="1528.45677049" x_displacement_sum="28.4567704935" y="697.00706336" y_displacement_sum="-2.99293664032" />