<?xml version="1.0" encoding="UTF-8"?>

<!-- generated on 12/03/16 19:00:26 by SUMO netconvert Version 0.27.1
<?xml version="1.0" encoding="UTF-8"?>

<configuration xmlns:xsi="http://www.w3.org/2001/XMLSchema-instance" xsi:noNamespaceSchemaLocation="http://sumo.dlr.de/xsd/netconvertConfiguration.xsd">

    <input>
        <node-files value="C:\Users\zs633\capstone\8_linear\test_2\7_displaced\linear.nod.xml"/>
        <edge-files value="C:\Users\zs633\capstone\8_linear\test_2\7_displaced\linear.edg.xml"/>
        <connection-files value="C:\Users\zs633\capstone\8_linear\test_2\4_plain\test.con.xml"/>
        <tllogic-files value="C:\Users\zs633\capstone\8_linear\test_2\4_plain\test.tll.xml"/>
    </input>

    <output>
        <output-file value="C:\Users\zs633\capstone\8_linear\test_2\9_output_net\linear.net.xml"/>
    </output>

    <processing>
        <ignore-errors value="true"/>
        <ignore-errors.edge-type value="true"/>
    </processing>

    <report>
        <verbose value="true"/>
        <xml-validation value="never"/>
        <no-warnings value="true"/>
    </report>

</configuration>
-->

<net version="0.27" xmlns:xsi="http://www.w3.org/2001/XMLSchema-instance" xsi:noNamespaceSchemaLocation="http://sumo.dlr.de/xsd/net_file.xsd">

    <location netOffset="209.65,209.65" convBoundary="0.00,0.00,2419.29,2419.29" origBoundary="-209.65,-209.65,2209.65,2209.65" projParameter="!"/>

    <edge id=":node_00x00_0" function="internal">
        <lane id=":node_00x00_0_0" index="0" disallow="tram rail_urban rail rail_electric ship" speed="13.89" length="7.90" shape="208.00,212.90 208.30,210.75 209.22,209.22 210.75,208.30 212.90,208.00"/>
    </edge>
    <edge id=":node_00x00_1" function="internal">
        <lane id=":node_00x00_1_0" index="0" disallow="tram rail_urban rail rail_electric ship" speed="13.89" length="2.58" shape="212.90,211.30 212.20,211.40 211.70,211.70 211.40,212.20 211.30,212.90"/>
    </edge>
    <edge id=":node_00x01_0" function="internal">
        <lane id=":node_00x01_0_0" index="0" disallow="tram rail_urban rail rail_electric ship" speed="13.89" length="9.50" shape="208.00,314.40 208.00,304.90"/>
    </edge>
    <edge id=":node_00x01_1" function="internal">
        <lane id=":node_00x01_1_0" index="0" disallow="tram rail_urban rail rail_electric ship" speed="13.89" length="10.32" shape="208.00,314.40 208.40,311.60 209.60,309.60 211.60,308.40 214.40,308.00"/>
    </edge>
    <edge id=":node_00x01_2" function="internal">
        <lane id=":node_00x01_2_0" index="0" disallow="tram rail_urban rail rail_electric ship" speed="13.89" length="5.00" shape="214.40,311.30 213.04,311.49 212.07,312.07 211.49,313.04 211.30,314.40"/>
    </edge>
    <edge id=":node_00x01_3" function="internal">
        <lane id=":node_00x01_3_0" index="0" disallow="tram rail_urban rail rail_electric ship" speed="13.89" length="10.32" shape="214.40,311.30 211.60,310.90 209.60,309.70 208.40,307.70 208.00,304.90"/>
    </edge>
    <edge id=":node_00x01_4" function="internal">
        <lane id=":node_00x01_4_0" index="0" disallow="tram rail_urban rail rail_electric ship" speed="13.89" length="5.00" shape="211.30,304.90 211.49,306.25 212.07,307.22 213.04,307.80 214.40,308.00"/>
    </edge>
    <edge id=":node_00x01_5" function="internal">
        <lane id=":node_00x01_5_0" index="0" disallow="tram rail_urban rail rail_electric ship" speed="13.89" length="9.50" shape="211.30,304.90 211.30,314.40"/>
    </edge>
    <edge id=":node_00x02_0" function="internal">
        <lane id=":node_00x02_0_0" index="0" disallow="tram rail_urban rail rail_electric ship" speed="13.89" length="9.50" shape="208.00,414.40 208.00,404.90"/>
    </edge>
    <edge id=":node_00x02_1" function="internal">
        <lane id=":node_00x02_1_0" index="0" disallow="tram rail_urban rail rail_electric ship" speed="13.89" length="10.32" shape="208.00,414.40 208.40,411.60 209.60,409.60 211.60,408.40 214.40,408.00"/>
    </edge>
    <edge id=":node_00x02_2" function="internal">
        <lane id=":node_00x02_2_0" index="0" disallow="tram rail_urban rail rail_electric ship" speed="13.89" length="5.00" shape="214.40,411.30 213.04,411.49 212.07,412.07 211.49,413.04 211.30,414.40"/>
    </edge>
    <edge id=":node_00x02_3" function="internal">
        <lane id=":node_00x02_3_0" index="0" disallow="tram rail_urban rail rail_electric ship" speed="13.89" length="10.32" shape="214.40,411.30 211.60,410.90 209.60,409.70 208.40,407.70 208.00,404.90"/>
    </edge>
    <edge id=":node_00x02_4" function="internal">
        <lane id=":node_00x02_4_0" index="0" disallow="tram rail_urban rail rail_electric ship" speed="13.89" length="5.00" shape="211.30,404.90 211.49,406.25 212.07,407.22 213.04,407.80 214.40,408.00"/>
    </edge>
    <edge id=":node_00x02_5" function="internal">
        <lane id=":node_00x02_5_0" index="0" disallow="tram rail_urban rail rail_electric ship" speed="13.89" length="9.50" shape="211.30,404.90 211.30,414.40"/>
    </edge>
    <edge id=":node_00x03_0" function="internal">
        <lane id=":node_00x03_0_0" index="0" disallow="tram rail_urban rail rail_electric ship" speed="13.89" length="9.50" shape="208.00,514.40 208.00,504.90"/>
    </edge>
    <edge id=":node_00x03_1" function="internal">
        <lane id=":node_00x03_1_0" index="0" disallow="tram rail_urban rail rail_electric ship" speed="13.89" length="10.32" shape="208.00,514.40 208.40,511.60 209.60,509.60 211.60,508.40 214.40,508.00"/>
    </edge>
    <edge id=":node_00x03_2" function="internal">
        <lane id=":node_00x03_2_0" index="0" disallow="tram rail_urban rail rail_electric ship" speed="13.89" length="5.00" shape="214.40,511.30 213.04,511.49 212.07,512.07 211.49,513.04 211.30,514.40"/>
    </edge>
    <edge id=":node_00x03_3" function="internal">
        <lane id=":node_00x03_3_0" index="0" disallow="tram rail_urban rail rail_electric ship" speed="13.89" length="10.32" shape="214.40,511.30 211.60,510.90 209.60,509.70 208.40,507.70 208.00,504.90"/>
    </edge>
    <edge id=":node_00x03_4" function="internal">
        <lane id=":node_00x03_4_0" index="0" disallow="tram rail_urban rail rail_electric ship" speed="13.89" length="5.00" shape="211.30,504.90 211.49,506.25 212.07,507.22 213.04,507.80 214.40,508.00"/>
    </edge>
    <edge id=":node_00x03_5" function="internal">
        <lane id=":node_00x03_5_0" index="0" disallow="tram rail_urban rail rail_electric ship" speed="13.89" length="9.50" shape="211.30,504.90 211.30,514.40"/>
    </edge>
    <edge id=":node_00x04_0" function="internal">
        <lane id=":node_00x04_0_0" index="0" disallow="tram rail_urban rail rail_electric ship" speed="13.89" length="9.50" shape="208.00,614.40 208.00,604.90"/>
    </edge>
    <edge id=":node_00x04_1" function="internal">
        <lane id=":node_00x04_1_0" index="0" disallow="tram rail_urban rail rail_electric ship" speed="13.89" length="10.32" shape="208.00,614.40 208.40,611.60 209.60,609.60 211.60,608.40 214.40,608.00"/>
    </edge>
    <edge id=":node_00x04_2" function="internal">
        <lane id=":node_00x04_2_0" index="0" disallow="tram rail_urban rail rail_electric ship" speed="13.89" length="5.00" shape="214.40,611.30 213.04,611.49 212.07,612.07 211.49,613.04 211.30,614.40"/>
    </edge>
    <edge id=":node_00x04_3" function="internal">
        <lane id=":node_00x04_3_0" index="0" disallow="tram rail_urban rail rail_electric ship" speed="13.89" length="10.32" shape="214.40,611.30 211.60,610.90 209.60,609.70 208.40,607.70 208.00,604.90"/>
    </edge>
    <edge id=":node_00x04_4" function="internal">
        <lane id=":node_00x04_4_0" index="0" disallow="tram rail_urban rail rail_electric ship" speed="13.89" length="5.00" shape="211.30,604.90 211.49,606.25 212.07,607.22 213.04,607.80 214.40,608.00"/>
    </edge>
    <edge id=":node_00x04_5" function="internal">
        <lane id=":node_00x04_5_0" index="0" disallow="tram rail_urban rail rail_electric ship" speed="13.89" length="9.50" shape="211.30,604.90 211.30,614.40"/>
    </edge>
    <edge id=":node_00x05_0" function="internal">
        <lane id=":node_00x05_0_0" index="0" disallow="tram rail_urban rail rail_electric ship" speed="13.89" length="5.10" shape="214.40,711.30 212.98,711.48 211.94,712.04 211.27,712.98 210.98,714.28"/>
    </edge>
    <edge id=":node_00x05_1" function="internal">
        <lane id=":node_00x05_1_0" index="0" disallow="tram rail_urban rail rail_electric ship" speed="13.89" length="10.32" shape="214.40,711.30 211.60,710.90 209.60,709.70 208.40,707.70 208.00,704.90"/>
    </edge>
    <edge id=":node_00x05_2" function="internal">
        <lane id=":node_00x05_2_0" index="0" disallow="tram rail_urban rail rail_electric ship" speed="13.89" length="5.00" shape="211.30,704.90 211.49,706.25 212.07,707.22 213.04,707.80 214.40,708.00"/>
    </edge>
    <edge id=":node_00x05_3" function="internal">
        <lane id=":node_00x05_3_0" index="0" disallow="tram rail_urban rail rail_electric ship" speed="13.89" length="9.39" shape="211.30,704.90 210.98,714.28"/>
    </edge>
    <edge id=":node_00x05_4" function="internal">
        <lane id=":node_00x05_4_0" index="0" disallow="tram rail_urban rail rail_electric ship" speed="13.89" length="9.16" shape="207.68,714.05 208.00,704.90"/>
    </edge>
    <edge id=":node_00x05_5" function="internal">
        <lane id=":node_00x05_5_0" index="0" disallow="tram rail_urban rail rail_electric ship" speed="13.89" length="10.16" shape="207.68,714.05 208.26,711.40 209.57,709.51 211.62,708.38 214.40,708.00"/>
    </edge>
    <edge id=":node_00x06_0" function="internal">
        <lane id=":node_00x06_0_0" index="0" disallow="tram rail_urban rail rail_electric ship" speed="13.89" length="4.90" shape="211.09,798.90 209.83,799.61 208.80,799.85 207.84,800.17 206.81,801.10"/>
    </edge>
    <edge id=":node_00x06_1" function="internal">
        <lane id=":node_00x06_1_0" index="0" disallow="tram rail_urban rail rail_electric ship" speed="13.89" length="15.89" shape="211.09,798.90 206.82,801.54 203.89,801.63 202.32,799.16 202.08,794.15"/>
    </edge>
    <edge id=":node_00x06_2" function="internal">
        <lane id=":node_00x06_2_0" index="0" disallow="tram rail_urban rail rail_electric ship" speed="13.89" length="6.46" shape="205.38,794.38 205.47,796.42 206.11,797.42 207.30,797.38 209.04,796.31"/>
    </edge>
    <edge id=":node_00x06_3" function="internal">
        <lane id=":node_00x06_3_0" index="0" disallow="tram rail_urban rail rail_electric ship" speed="13.89" length="6.87" shape="205.38,794.38 206.81,801.10"/>
    </edge>
    <edge id=":node_00x06_4" function="internal">
        <lane id=":node_00x06_4_0" index="0" disallow="tram rail_urban rail rail_electric ship" speed="13.89" length="5.84" shape="204.22,799.05 204.56,797.78 203.70,796.82 202.57,795.75 202.08,794.15"/>
    </edge>
    <edge id=":node_00x06_5" function="internal">
        <lane id=":node_00x06_5_0" index="0" disallow="tram rail_urban rail rail_electric ship" speed="13.89" length="5.63" shape="204.22,799.05 205.39,797.95 206.46,797.51 207.61,797.16 209.04,796.31"/>
    </edge>
    <edge id=":node_00x07_0" function="internal">
        <lane id=":node_00x07_0_0" index="0" disallow="tram rail_urban rail rail_electric ship" speed="13.89" length="10.24" shape="175.64,851.26 165.93,848.01"/>
    </edge>
    <edge id=":node_00x07_1" function="internal">
        <lane id=":node_00x07_1_0" index="0" disallow="tram rail_urban rail rail_electric ship" speed="13.89" length="36.00" shape="175.64,851.26 164.57,858.16 159.73,859.23 161.11,854.47 168.71,843.87"/>
    </edge>
    <edge id=":node_00x07_2" function="internal">
        <lane id=":node_00x07_2_0" index="0" disallow="tram rail_urban rail rail_electric ship" speed="13.89" length="12.81" shape="171.29,845.92 168.59,849.69 168.10,851.39 169.82,851.00 173.76,848.55"/>
    </edge>
    <edge id=":node_00x07_3" function="internal">
        <lane id=":node_00x07_3_0" index="0" disallow="tram rail_urban rail rail_electric ship" speed="13.89" length="5.76" shape="171.29,845.92 165.93,848.01"/>
    </edge>
    <edge id=":node_00x07_4" function="internal">
        <lane id=":node_00x07_4_0" index="0" disallow="tram rail_urban rail rail_electric ship" speed="13.89" length="6.47" shape="163.05,846.39 164.31,845.20 165.73,845.03 167.23,844.91 168.71,843.87"/>
    </edge>
    <edge id=":node_00x07_5" function="internal">
        <lane id=":node_00x07_5_0" index="0" disallow="tram rail_urban rail rail_electric ship" speed="13.89" length="12.01" shape="163.05,846.39 165.18,845.29 167.79,846.90 170.70,848.80 173.76,848.55"/>
    </edge>
    <edge id=":node_00x08_0" function="internal">
        <lane id=":node_00x08_0_0" index="0" disallow="tram rail_urban rail rail_electric ship" speed="13.89" length="8.00" shape="124.87,934.46 117.08,932.63"/>
    </edge>
    <edge id=":node_00x08_1" function="internal">
        <lane id=":node_00x08_1_0" index="0" disallow="tram rail_urban rail rail_electric ship" speed="13.89" length="22.35" shape="124.87,934.46 118.00,937.84 114.48,937.78 114.33,934.27 117.53,927.31"/>
    </edge>
    <edge id=":node_00x08_2" function="internal">
        <lane id=":node_00x08_2_0" index="0" disallow="tram rail_urban rail rail_electric ship" speed="13.89" length="8.43" shape="120.41,928.93 119.20,931.55 119.26,932.87 120.58,932.90 123.18,931.62"/>
    </edge>
    <edge id=":node_00x08_3" function="internal">
        <lane id=":node_00x08_3_0" index="0" disallow="tram rail_urban rail rail_electric ship" speed="13.89" length="5.05" shape="120.41,928.93 119.50,930.10 118.64,930.73 117.82,931.39 117.08,932.63"/>
    </edge>
    <edge id=":node_00x08_4" function="internal">
        <lane id=":node_00x08_4_0" index="0" disallow="tram rail_urban rail rail_electric ship" speed="13.89" length="5.44" shape="114.02,931.38 114.82,930.02 115.67,929.29 116.57,928.58 117.53,927.31"/>
    </edge>
    <edge id=":node_00x08_5" function="internal">
        <lane id=":node_00x08_5_0" index="0" disallow="tram rail_urban rail rail_electric ship" speed="13.89" length="10.13" shape="114.02,931.38 115.63,929.96 117.78,930.79 120.33,931.98 123.18,931.62"/>
    </edge>
    <edge id=":node_00x09_0" function="internal">
        <lane id=":node_00x09_0_0" index="0" disallow="tram rail_urban rail rail_electric ship" speed="13.89" length="11.19" shape="84.23,1029.31 80.50,1031.29 77.75,1033.00 75.97,1034.45 75.17,1035.63"/>
    </edge>
    <edge id=":node_00x09_1" function="internal">
        <lane id=":node_00x09_1_0" index="0" disallow="tram rail_urban rail rail_electric ship" speed="13.89" length="17.57" shape="84.23,1029.31 78.88,1031.31 75.85,1030.82 75.14,1027.83 76.74,1022.35"/>
    </edge>
    <edge id=":node_00x09_2" function="internal">
        <lane id=":node_00x09_2_0" index="0" disallow="tram rail_urban rail rail_electric ship" speed="13.89" length="6.96" shape="79.79,1023.60 79.16,1025.77 79.44,1026.95 80.64,1027.15 82.76,1026.36"/>
    </edge>
    <edge id=":node_00x09_3" function="internal">
        <lane id=":node_00x09_3_0" index="0" disallow="tram rail_urban rail rail_electric ship" speed="13.89" length="12.89" shape="79.79,1023.60 75.17,1035.63"/>
    </edge>
    <edge id=":node_00x09_4" function="internal">
        <lane id=":node_00x09_4_0" index="0" disallow="tram rail_urban rail rail_electric ship" speed="13.89" length="13.22" shape="72.00,1034.70 76.74,1022.35"/>
    </edge>
    <edge id=":node_00x09_5" function="internal">
        <lane id=":node_00x09_5_0" index="0" disallow="tram rail_urban rail rail_electric ship" speed="13.89" length="13.85" shape="72.00,1034.70 73.06,1032.87 75.21,1030.87 78.44,1028.70 82.76,1026.36"/>
    </edge>
    <edge id=":node_00x10_0" function="internal">
        <lane id=":node_00x10_0_0" index="0" disallow="tram rail_urban rail rail_electric ship" speed="13.89" length="9.00" shape="51.32,1136.84 48.34,1138.14 46.15,1139.41 44.73,1140.63 44.11,1141.82"/>
    </edge>
    <edge id=":node_00x10_1" function="internal">
        <lane id=":node_00x10_1_0" index="0" disallow="tram rail_urban rail rail_electric ship" speed="13.89" length="14.96" shape="51.32,1136.84 46.84,1137.99 44.09,1137.24 43.10,1134.57 43.86,1130.00"/>
    </edge>
    <edge id=":node_00x10_2" function="internal">
        <lane id=":node_00x10_2_0" index="0" disallow="tram rail_urban rail rail_electric ship" speed="13.89" length="6.19" shape="47.03,1130.93 46.71,1132.83 47.12,1133.93 48.26,1134.24 50.12,1133.77"/>
    </edge>
    <edge id=":node_00x10_3" function="internal">
        <lane id=":node_00x10_3_0" index="0" disallow="tram rail_urban rail rail_electric ship" speed="13.89" length="11.27" shape="47.03,1130.93 44.11,1141.82"/>
    </edge>
    <edge id=":node_00x10_4" function="internal">
        <lane id=":node_00x10_4_0" index="0" disallow="tram rail_urban rail rail_electric ship" speed="13.89" length="11.56" shape="40.87,1141.17 43.86,1130.00"/>
    </edge>
    <edge id=":node_00x10_5" function="internal">
        <lane id=":node_00x10_5_0" index="0" disallow="tram rail_urban rail rail_electric ship" speed="13.89" length="12.25" shape="40.87,1141.17 41.76,1139.17 43.59,1137.27 46.38,1135.47 50.12,1133.77"/>
    </edge>
    <edge id=":node_00x11_0" function="internal">
        <lane id=":node_00x11_0_0" index="0" disallow="tram rail_urban rail rail_electric ship" speed="13.89" length="7.40" shape="26.59,1255.16 24.18,1255.97 22.42,1256.92 21.30,1258.00 20.83,1259.21"/>
    </edge>
    <edge id=":node_00x11_1" function="internal">
        <lane id=":node_00x11_1_0" index="0" disallow="tram rail_urban rail rail_electric ship" speed="13.89" length="13.16" shape="26.59,1255.16 22.72,1255.67 20.22,1254.71 19.09,1252.29 19.34,1248.39"/>
    </edge>
    <edge id=":node_00x11_2" function="internal">
        <lane id=":node_00x11_2_0" index="0" disallow="tram rail_urban rail rail_electric ship" speed="13.89" length="5.70" shape="22.57,1249.04 22.47,1250.73 22.96,1251.78 24.04,1252.20 25.72,1251.97"/>
    </edge>
    <edge id=":node_00x11_3" function="internal">
        <lane id=":node_00x11_3_0" index="0" disallow="tram rail_urban rail rail_electric ship" speed="13.89" length="10.32" shape="22.57,1249.04 20.83,1259.21"/>
    </edge>
    <edge id=":node_00x11_4" function="internal">
        <lane id=":node_00x11_4_0" index="0" disallow="tram rail_urban rail rail_electric ship" speed="13.89" length="10.59" shape="17.55,1258.83 19.34,1248.39"/>
    </edge>
    <edge id=":node_00x11_5" function="internal">
        <lane id=":node_00x11_5_0" index="0" disallow="tram rail_urban rail rail_electric ship" speed="13.89" length="11.30" shape="17.55,1258.83 18.27,1256.61 19.87,1254.73 22.35,1253.18 25.72,1251.97"/>
    </edge>
    <edge id=":node_00x12_0" function="internal">
        <lane id=":node_00x12_0_0" index="0" disallow="tram rail_urban rail rail_electric ship" speed="13.89" length="6.10" shape="10.87,1381.24 8.98,1381.68 7.62,1382.41 6.78,1383.41 6.46,1384.68"/>
    </edge>
    <edge id=":node_00x12_1" function="internal">
        <lane id=":node_00x12_1_0" index="0" disallow="tram rail_urban rail rail_electric ship" speed="13.89" length="11.73" shape="10.87,1381.24 7.52,1381.24 5.26,1380.12 4.09,1377.88 4.00,1374.54"/>
    </edge>
    <edge id=":node_00x12_2" function="internal">
        <lane id=":node_00x12_2_0" index="0" disallow="tram rail_urban rail rail_electric ship" speed="13.89" length="5.34" shape="7.28,1374.92 7.32,1376.45 7.85,1377.46 8.88,1377.97 10.41,1377.97"/>
    </edge>
    <edge id=":node_00x12_3" function="internal">
        <lane id=":node_00x12_3_0" index="0" disallow="tram rail_urban rail rail_electric ship" speed="13.89" length="9.79" shape="7.28,1374.92 6.46,1384.68"/>
    </edge>
    <edge id=":node_00x12_4" function="internal">
        <lane id=":node_00x12_4_0" index="0" disallow="tram rail_urban rail rail_electric ship" speed="13.89" length="10.05" shape="3.17,1384.56 4.00,1374.54"/>
    </edge>
    <edge id=":node_00x12_5" function="internal">
        <lane id=":node_00x12_5_0" index="0" disallow="tram rail_urban rail rail_electric ship" speed="13.89" length="10.74" shape="3.17,1384.56 3.70,1382.05 5.08,1380.12 7.32,1378.76 10.41,1377.97"/>
    </edge>
    <edge id=":node_00x13_0" function="internal">
        <lane id=":node_00x13_0_0" index="0" disallow="tram rail_urban rail rail_electric ship" speed="13.89" length="9.87" shape="-1.46,1514.58 -1.46,1504.71"/>
    </edge>
    <edge id=":node_00x13_1" function="internal">
        <lane id=":node_00x13_1_0" index="0" disallow="tram rail_urban rail rail_electric ship" speed="13.89" length="10.52" shape="-1.46,1514.58 -1.16,1511.70 -0.00,1509.64 2.01,1508.41 4.88,1508.00"/>
    </edge>
    <edge id=":node_00x13_2" function="internal">
        <lane id=":node_00x13_2_0" index="0" disallow="tram rail_urban rail rail_electric ship" speed="13.89" length="5.05" shape="4.88,1511.30 3.50,1511.49 2.54,1512.09 1.98,1513.07 1.84,1514.46"/>
    </edge>
    <edge id=":node_00x13_3" function="internal">
        <lane id=":node_00x13_3_0" index="0" disallow="tram rail_urban rail rail_electric ship" speed="13.89" length="10.52" shape="4.88,1511.30 2.01,1510.89 -0.00,1509.65 -1.16,1507.59 -1.46,1504.71"/>
    </edge>
    <edge id=":node_00x13_4" function="internal">
        <lane id=":node_00x13_4_0" index="0" disallow="tram rail_urban rail rail_electric ship" speed="13.89" length="5.05" shape="1.84,1504.84 1.98,1506.22 2.54,1507.21 3.50,1507.80 4.88,1508.00"/>
    </edge>
    <edge id=":node_00x13_5" function="internal">
        <lane id=":node_00x13_5_0" index="0" disallow="tram rail_urban rail rail_electric ship" speed="13.89" length="9.62" shape="1.84,1504.84 1.84,1514.46"/>
    </edge>
    <edge id=":node_00x14_0" function="internal">
        <lane id=":node_00x14_0_0" index="0" disallow="tram rail_urban rail rail_electric ship" speed="13.89" length="10.05" shape="4.00,1644.75 3.17,1634.74"/>
    </edge>
    <edge id=":node_00x14_1" function="internal">
        <lane id=":node_00x14_1_0" index="0" disallow="tram rail_urban rail rail_electric ship" speed="13.89" length="11.73" shape="4.00,1644.75 4.09,1641.41 5.26,1639.18 7.52,1638.06 10.87,1638.05"/>
    </edge>
    <edge id=":node_00x14_2" function="internal">
        <lane id=":node_00x14_2_0" index="0" disallow="tram rail_urban rail rail_electric ship" speed="13.89" length="5.34" shape="10.41,1641.32 8.88,1641.32 7.85,1641.83 7.32,1642.85 7.28,1644.37"/>
    </edge>
    <edge id=":node_00x14_3" function="internal">
        <lane id=":node_00x14_3_0" index="0" disallow="tram rail_urban rail rail_electric ship" speed="13.89" length="10.74" shape="10.41,1641.32 7.32,1640.54 5.08,1639.18 3.70,1637.24 3.17,1634.74"/>
    </edge>
    <edge id=":node_00x14_4" function="internal">
        <lane id=":node_00x14_4_0" index="0" disallow="tram rail_urban rail rail_electric ship" speed="13.89" length="6.10" shape="6.46,1634.61 6.78,1635.89 7.62,1636.89 8.98,1637.61 10.87,1638.05"/>
    </edge>
    <edge id=":node_00x14_5" function="internal">
        <lane id=":node_00x14_5_0" index="0" disallow="tram rail_urban rail rail_electric ship" speed="13.89" length="9.79" shape="6.46,1634.61 7.28,1644.37"/>
    </edge>
    <edge id=":node_00x15_0" function="internal">
        <lane id=":node_00x15_0_0" index="0" disallow="tram rail_urban rail rail_electric ship" speed="13.89" length="10.59" shape="19.34,1770.90 17.55,1760.46"/>
    </edge>
    <edge id=":node_00x15_1" function="internal">
        <lane id=":node_00x15_1_0" index="0" disallow="tram rail_urban rail rail_electric ship" speed="13.89" length="13.16" shape="19.34,1770.90 19.09,1767.01 20.22,1764.58 22.72,1763.62 26.59,1764.14"/>
    </edge>
    <edge id=":node_00x15_2" function="internal">
        <lane id=":node_00x15_2_0" index="0" disallow="tram rail_urban rail rail_electric ship" speed="13.89" length="5.70" shape="25.72,1767.32 24.04,1767.10 22.96,1767.51 22.47,1768.56 22.57,1770.25"/>
    </edge>
    <edge id=":node_00x15_3" function="internal">
        <lane id=":node_00x15_3_0" index="0" disallow="tram rail_urban rail rail_electric ship" speed="13.89" length="11.30" shape="25.72,1767.32 22.35,1766.11 19.87,1764.57 18.27,1762.68 17.55,1760.46"/>
    </edge>
    <edge id=":node_00x15_4" function="internal">
        <lane id=":node_00x15_4_0" index="0" disallow="tram rail_urban rail rail_electric ship" speed="13.89" length="7.40" shape="20.83,1760.08 21.30,1761.30 22.42,1762.38 24.18,1763.32 26.59,1764.14"/>
    </edge>
    <edge id=":node_00x15_5" function="internal">
        <lane id=":node_00x15_5_0" index="0" disallow="tram rail_urban rail rail_electric ship" speed="13.89" length="10.32" shape="20.83,1760.08 22.57,1770.25"/>
    </edge>
    <edge id=":node_00x16_0" function="internal">
        <lane id=":node_00x16_0_0" index="0" disallow="tram rail_urban rail rail_electric ship" speed="13.89" length="11.56" shape="43.86,1889.29 40.87,1878.13"/>
    </edge>
    <edge id=":node_00x16_1" function="internal">
        <lane id=":node_00x16_1_0" index="0" disallow="tram rail_urban rail rail_electric ship" speed="13.89" length="14.96" shape="43.86,1889.29 43.10,1884.72 44.09,1882.06 46.84,1881.30 51.32,1882.46"/>
    </edge>
    <edge id=":node_00x16_2" function="internal">
        <lane id=":node_00x16_2_0" index="0" disallow="tram rail_urban rail rail_electric ship" speed="13.89" length="6.19" shape="50.12,1885.53 48.26,1885.05 47.12,1885.36 46.71,1886.47 47.03,1888.36"/>
    </edge>
    <edge id=":node_00x16_3" function="internal">
        <lane id=":node_00x16_3_0" index="0" disallow="tram rail_urban rail rail_electric ship" speed="13.89" length="12.25" shape="50.12,1885.53 46.38,1883.82 43.59,1882.02 41.76,1880.12 40.87,1878.13"/>
    </edge>
    <edge id=":node_00x16_4" function="internal">
        <lane id=":node_00x16_4_0" index="0" disallow="tram rail_urban rail rail_electric ship" speed="13.89" length="9.00" shape="44.11,1877.48 44.73,1878.66 46.15,1879.88 48.34,1881.15 51.32,1882.46"/>
    </edge>
    <edge id=":node_00x16_5" function="internal">
        <lane id=":node_00x16_5_0" index="0" disallow="tram rail_urban rail rail_electric ship" speed="13.89" length="11.27" shape="44.11,1877.48 47.03,1888.36"/>
    </edge>
    <edge id=":node_00x17_0" function="internal">
        <lane id=":node_00x17_0_0" index="0" disallow="tram rail_urban rail rail_electric ship" speed="13.89" length="13.22" shape="76.74,1996.94 72.00,1984.60"/>
    </edge>
    <edge id=":node_00x17_1" function="internal">
        <lane id=":node_00x17_1_0" index="0" disallow="tram rail_urban rail rail_electric ship" speed="13.89" length="17.57" shape="76.74,1996.94 75.14,1991.46 75.85,1988.48 78.88,1987.98 84.23,1989.99"/>
    </edge>
    <edge id=":node_00x17_2" function="internal">
        <lane id=":node_00x17_2_0" index="0" disallow="tram rail_urban rail rail_electric ship" speed="13.89" length="6.96" shape="82.76,1992.94 80.64,1992.14 79.44,1992.34 79.16,1993.52 79.79,1995.69"/>
    </edge>
    <edge id=":node_00x17_3" function="internal">
        <lane id=":node_00x17_3_0" index="0" disallow="tram rail_urban rail rail_electric ship" speed="13.89" length="13.85" shape="82.76,1992.94 78.44,1990.59 75.21,1988.42 73.06,1986.42 72.00,1984.60"/>
    </edge>
    <edge id=":node_00x17_4" function="internal">
        <lane id=":node_00x17_4_0" index="0" disallow="tram rail_urban rail rail_electric ship" speed="13.89" length="11.19" shape="75.17,1983.66 75.97,1984.85 77.75,1986.30 80.50,1988.01 84.23,1989.99"/>
    </edge>
    <edge id=":node_00x17_5" function="internal">
        <lane id=":node_00x17_5_0" index="0" disallow="tram rail_urban rail rail_electric ship" speed="13.89" length="12.89" shape="75.17,1983.66 79.79,1995.69"/>
    </edge>
    <edge id=":node_00x18_0" function="internal">
        <lane id=":node_00x18_0_0" index="0" disallow="tram rail_urban rail rail_electric ship" speed="13.89" length="5.44" shape="117.53,2091.99 116.57,2090.71 115.67,2090.00 114.82,2089.27 114.02,2087.91"/>
    </edge>
    <edge id=":node_00x18_1" function="internal">
        <lane id=":node_00x18_1_0" index="0" disallow="tram rail_urban rail rail_electric ship" speed="13.89" length="22.35" shape="117.53,2091.99 114.33,2085.03 114.48,2081.52 118.00,2081.45 124.87,2084.84"/>
    </edge>
    <edge id=":node_00x18_2" function="internal">
        <lane id=":node_00x18_2_0" index="0" disallow="tram rail_urban rail rail_electric ship" speed="13.89" length="8.43" shape="123.18,2087.67 120.58,2086.40 119.26,2086.42 119.20,2087.74 120.41,2090.37"/>
    </edge>
    <edge id=":node_00x18_3" function="internal">
        <lane id=":node_00x18_3_0" index="0" disallow="tram rail_urban rail rail_electric ship" speed="13.89" length="9.15" shape="123.18,2087.67 114.02,2087.91"/>
    </edge>
    <edge id=":node_00x18_4" function="internal">
        <lane id=":node_00x18_4_0" index="0" disallow="tram rail_urban rail rail_electric ship" speed="13.89" length="9.04" shape="117.08,2086.66 118.45,2087.65 120.25,2086.37 122.41,2084.78 124.87,2084.84"/>
    </edge>
    <edge id=":node_00x18_5" function="internal">
        <lane id=":node_00x18_5_0" index="0" disallow="tram rail_urban rail rail_electric ship" speed="13.89" length="5.05" shape="117.08,2086.66 117.82,2087.91 118.64,2088.57 119.50,2089.20 120.41,2090.37"/>
    </edge>
    <edge id=":node_00x19_0" function="internal">
        <lane id=":node_00x19_0_0" index="0" disallow="tram rail_urban rail rail_electric ship" speed="13.89" length="6.47" shape="168.71,2175.43 167.23,2174.39 165.73,2174.27 164.31,2174.09 163.05,2172.90"/>
    </edge>
    <edge id=":node_00x19_1" function="internal">
        <lane id=":node_00x19_1_0" index="0" disallow="tram rail_urban rail rail_electric ship" speed="13.89" length="36.00" shape="168.71,2175.43 161.11,2164.83 159.73,2160.06 164.57,2161.13 175.64,2168.03"/>
    </edge>
    <edge id=":node_00x19_2" function="internal">