<additional>
    <edgeData id="all" file="island.dump.xml" excludeEmpty="false"/>
</additional>
