<?xml version='1.0' encoding='UTF-8'?>
<nodes xmlns:xsi="http://www.w3.org/2001/XMLSchema-instance" version="0.27" xsi:noNamespaceSchemaLocation="http://sumo.dlr.de/xsd/edges_file.xsd"><node avg_slowdown_ratio="0.999280057598" id="node_07x13" junction="True" old_x="700.0" old_y="1300.0" type="right_before_left" weight_num="4.0" weight_sum="3.99712023039" x="609.48368136" x_displacement_sum="-90.5163186403" y="1390.51631864" y_displacement_sum="90.5163186403" />
    <node avg_slowdown_ratio="0.999280057598" id="node_13x07" junction="True" old_x="1300.0" old_y="700.0" type="right_before_left" weight_num="4.0" weight_sum="3.99712023039" x="1390.51631864" x_displacement_sum="90.5163186403" y="609.48368136" y_displacement_sum="-90.5163186403" />
    <node avg_slowdown_ratio="0.0" id="node_00x00" junction="True" old_x="0.0" old_y="0.0" type="right_before_left" weight_num="2.0" weight_sum="0.0" x="0.0" y="0.0" />
    <node avg_slowdown_ratio="0.0" id="node_00x01" junction="True" old_x="0.0" old_y="100.0" type="right_before_left" weight_num="3.0" weight_sum="0.0" x="0.0" y="100.0" />
    <node avg_slowdown_ratio="0.0" id="node_00x02" junction="True" old_x="0.0" old_y="200.0" type="right_before_left" weight_num="3.0" weight_sum="0.0" x="0.0" y="200.0" />
    <node avg_slowdown_ratio="0.0" id="node_00x03" junction="True" old_x="0.0" old_y="300.0" type="right_before_left" weight_num="3.0" weight_sum="0.0" x="0.0" y="300.0" />
    <node avg_slowdown_ratio="0.0" id="node_00x04" junction="True" old_x="0.0" old_y="400.0" type="right_before_left" weight_num="3.0" weight_sum="0.0" x="0.0" y="400.0" />
    <node avg_slowdown_ratio="0.0" id="node_00x05" junction="True" old_x="0.0" old_y="500.0" type="right_before_left" weight_num="3.0" weight_sum="0.0" x="0.0" y="500.0" />
    <node avg_slowdown_ratio="0.0" id="node_00x06" junction="True" old_x="0.0" old_y="600.0" type="right_before_left" weight_num="3.0" weight_sum="0.0" x="-6.53610037158" x_displacement_sum="-6.53610037158" y="593.463899628" y_displacement_sum="-6.53610037158" />
    <node avg_slowdown_ratio="0.0" id="node_00x07" junction="True" old_x="0.0" old_y="700.0" type="right_before_left" weight_num="3.0" weight_sum="0.0" x="-54.1669253745" x_displacement_sum="-54.1669253745" y="653.571206822" y_displacement_sum="-46.4287931781" />
    <node avg_slowdown_ratio="0.0" id="node_00x08" junction="True" old_x="0.0" old_y="800.0" type="right_before_left" weight_num="3.0" weight_sum="0.0" x="-97.4033964608" x_displacement_sum="-97.4033964608" y="730.426145385" y_displacement_sum="-69.5738546149" />
    <node avg_slowdown_ratio="0.0" id="node_00x09" junction="True" old_x="0.0" old_y="900.0" type="right_before_left" weight_num="3.0" weight_sum="0.0" x="-135.235359607" x_displacement_sum="-135.235359607" y="822.722651653" y_displacement_sum="-77.277348347" />
    <node avg_slowdown_ratio="0.0" id="node_00x10" junction="True" old_x="0.0" old_y="1000.0" type="right_before_left" weight_num="3.0" weight_sum="0.0" x="-166.511801815" x_displacement_sum="-166.511801815" y="928.637799222" y_displacement_sum="-71.3622007777" />
    <node avg_slowdown_ratio="0.0" id="node_00x11" junction="True" old_x="0.0" old_y="1100.0" type="right_before_left" weight_num="3.0" weight_sum="0.0" x="-190.025155236" x_displacement_sum="-190.025155236" y="1045.7070985" y_displacement_sum="-54.2929014959" />
    <node avg_slowdown_ratio="0.0" id="node_00x12" junction="True" old_x="0.0" old_y="1200.0" type="right_before_left" weight_num="3.0" weight_sum="0.0" x="-204.668643123" x_displacement_sum="-204.668643123" y="1170.76162241" y_displacement_sum="-29.2383775889" />
    <node avg_slowdown_ratio="0.0" id="node_00x13" junction="True" old_x="0.0" old_y="1300.0" type="right_before_left" weight_num="3.0" weight_sum="0.0" x="-209.646974065" x_displacement_sum="-209.646974065" y="1300.0" y_displacement_sum="0.0" />
    <node avg_slowdown_ratio="0.0" id="node_00x14" junction="True" old_x="0.0" old_y="1400.0" type="right_before_left" weight_num="3.0" weight_sum="0.0" x="-204.668643123" x_displacement_sum="-204.668643123" y="1429.23837759" y_displacement_sum="29.2383775889" />
    <node avg_slowdown_ratio="0.0" id="node_00x15" junction="True" old_x="0.0" old_y="1500.0" type="right_before_left" weight_num="3.0" weight_sum="0.0" x="-190.025155236" x_displacement_sum="-190.025155236" y="1554.2929015" y_displacement_sum="54.2929014959" />
    <node avg_slowdown_ratio="0.0" id="node_00x16" junction="True" old_x="0.0" old_y="1600.0" type="right_before_left" weight_num="3.0" weight_sum="0.0" x="-166.511801815" x_displacement_sum="-166.511801815" y="1671.36220078" y_displacement_sum="71.3622007777" />
    <node avg_slowdown_ratio="0.0" id="node_00x17" junction="True" old_x="0.0" old_y="1700.0" type="right_before_left" weight_num="3.0" weight_sum="0.0" x="-135.235359607" x_displacement_sum="-135.235359607" y="1777.27734835" y_displacement_sum="77.277348347" />
    <node avg_slowdown_ratio="0.0" id="node_00x18" junction="True" old_x="0.0" old_y="1800.0" type="right_before_left" weight_num="3.0" weight_sum="0.0" x="-97.4033964608" x_displacement_sum="-97.4033964608" y="1869.57385461" y_displacement_sum="69.5738546149" />
    <node avg_slowdown_ratio="0.0" id="node_00x19" junction="True" old_x="0.0" old_y="1900.0" type="right_before_left" weight_num="3.0" weight_sum="0.0" x="-54.1669253745" x_displacement_sum="-54.1669253745" y="1946.42879318" y_displacement_sum="46.4287931781" />
    <node avg_slowdown_ratio="0.0" id="node_00x20" junction="True" old_x="0.0" old_y="2000.0" type="right_before_left" weight_num="2.0" weight_sum="0.0" x="-6.53610037158" x_displacement_sum="-6.53610037158" y="2006.53610037" y_displacement_sum="6.53610037158" />
    <node avg_slowdown_ratio="0.0" id="node_01x00" junction="True" old_x="100.0" old_y="0.0" type="right_before_left" weight_num="3.0" weight_sum="0.0" x="100.0" y="0.0" />
    <node avg_slowdown_ratio="0.0" id="node_01x01" junction="True" old_x="100.0" old_y="100.0" type="right_before_left" weight_num="4.0" weight_sum="0.0" x="100.0" y="100.0" />
    <node avg_slowdown_ratio="0.0" id="node_01x02" junction="True" old_x="100.0" old_y="200.0" type="right_before_left" weight_num="4.0" weight_sum="0.0" x="100.0" y="200.0" />
    <node avg_slowdown_ratio="0.0" id="node_01x03" junction="True" old_x="100.0" old_y="300.0" type="right_before_left" weight_num="4.0" weight_sum="0.0" x="100.0" y="300.0" />
    <node avg_slowdown_ratio="0.0" id="node_01x04" junction="True" old_x="100.0" old_y="400.0" type="right_before_left" weight_num="4.0" weight_sum="0.0" x="100.0" y="400.0" />
    <node avg_slowdown_ratio="0.0" id="node_01x05" junction="True" old_x="100.0" old_y="500.0" type="right_before_left" weight_num="4.0" weight_sum="0.0" x="100.0" y="500.0" />
    <node avg_slowdown_ratio="0.0" id="node_01x06" junction="True" old_x="100.0" old_y="600.0" type="right_before_left" weight_num="4.0" weight_sum="0.0" x="53.5712068219" x_displacement_sum="-46.4287931781" y="545.833074625" y_displacement_sum="-54.1669253745" />
    <node avg_slowdown_ratio="0.0" id="node_01x07" junction="True" old_x="100.0" old_y="700.0" type="right_before_left" weight_num="4.0" weight_sum="0.0" x="9.4836813597" x_displacement_sum="-90.5163186403" y="609.48368136" y_displacement_sum="-90.5163186403" />
    <node avg_slowdown_ratio="0.0" id="node_01x08" junction="True" old_x="100.0" old_y="800.0" type="right_before_left" weight_num="4.0" weight_sum="0.0" x="-31.047400585" x_displacement_sum="-131.047400585" y="690.793832846" y_displacement_sum="-109.206167154" />
    <node avg_slowdown_ratio="0.0" id="node_01x09" junction="True" old_x="100.0" old_y="900.0" type="right_before_left" weight_num="4.0" weight_sum="0.0" x="-67.022127815" x_displacement_sum="-167.022127815" y="788.65191479" y_displacement_sum="-111.34808521" />
    <node avg_slowdown_ratio="0.0" id="node_01x10" junction="True" old_x="100.0" old_y="1000.0" type="right_before_left" weight_num="4.0" weight_sum="0.0" x="-97.217784054" x_displacement_sum="-197.217784054" y="901.391107973" y_displacement_sum="-98.608892027" />
    <node avg_slowdown_ratio="0.0" id="node_01x11" junction="True" old_x="100.0" old_y="1100.0" type="right_before_left" weight_num="4.0" weight_sum="0.0" x="-120.253285018" x_displacement_sum="-220.253285018" y="1026.58223833" y_displacement_sum="-73.4177616726" />
    <node avg_slowdown_ratio="0.0" id="node_01x12" junction="True" old_x="100.0" old_y="1200.0" type="right_before_left" weight_num="4.0" weight_sum="0.0" x="-134.771304558" x_displacement_sum="-234.771304558" y="1160.87144924" y_displacement_sum="-39.1285507596" />
    <node avg_slowdown_ratio="0.0" id="node_01x13" junction="True" old_x="100.0" old_y="1300.0" type="right_before_left" weight_num="4.0" weight_sum="0.0" x="-139.740634007" x_displacement_sum="-239.740634007" y="1300.0" y_displacement_sum="0.0" />
    <node avg_slowdown_ratio="0.0" id="node_01x14" junction="True" old_x="100.0" old_y="1400.0" type="right_before_left" weight_num="4.0" weight_sum="0.0" x="-134.771304558" x_displacement_sum="-234.771304558" y="1439.12855076" y_displacement_sum="39.1285507596" />
    <node avg_slowdown_ratio="0.0" id="node_01x15" junction="True" old_x="100.0" old_y="1500.0" type="right_before_left" weight_num="4.0" weight_sum="0.0" x="-120.253285018" x_displacement_sum="-220.253285018" y="1573.41776167" y_displacement_sum="73.4177616726" />
    <node avg_slowdown_ratio="0.0" id="node_01x16" junction="True" old_x="100.0" old_y="1600.0" type="right_before_left" weight_num="4.0" weight_sum="0.0" x="-97.217784054" x_displacement_sum="-197.217784054" y="1698.60889203" y_displacement_sum="98.608892027" />
    <node avg_slowdown_ratio="0.0" id="node_01x17" junction="True" old_x="100.0" old_y="1700.0" type="right_before_left" weight_num="4.0" weight_sum="0.0" x="-67.022127815" x_displacement_sum="-167.022127815" y="1811.34808521" y_displacement_sum="111.34808521" />
    <node avg_slowdown_ratio="0.0" id="node_01x18" junction="True" old_x="100.0" old_y="1800.0" type="right_before_left" weight_num="4.0" weight_sum="0.0" x="-31.047400585" x_displacement_sum="-131.047400585" y="1909.20616715" y_displacement_sum="109.206167154" />
    <node avg_slowdown_ratio="0.0" id="node_01x19" junction="True" old_x="100.0" old_y="1900.0" type="right_before_left" weight_num="4.0" weight_sum="0.0" x="9.4836813597" x_displacement_sum="-90.5163186403" y="1990.51631864" y_displacement_sum="90.5163186403" />
    <node avg_slowdown_ratio="0.0" id="node_01x20" junction="True" old_x="100.0" old_y="2000.0" type="right_before_left" weight_num="3.0" weight_sum="0.0" x="53.5712068219" x_displacement_sum="-46.4287931781" y="2054.16692537" y_displacement_sum="54.1669253745" />
    <node avg_slowdown_ratio="0.0" id="node_02x00" junction="True" old_x="200.0" old_y="0.0" type="right_before_left" weight_num="3.0" weight_sum="0.0" x="200.0" y="0.0" />
    <node avg_slowdown_ratio="0.0" id="node_02x01" junction="True" old_x="200.0" old_y="100.0" type="right_before_left" weight_num="4.0" weight_sum="0.0" x="200.0" y="100.0" />
    <node avg_slowdown_ratio="0.0" id="node_02x02" junction="True" old_x="200.0" old_y="200.0" type="right_before_left" weight_num="4.0" weight_sum="0.0" x="200.0" y="200.0" />
    <node avg_slowdown_ratio="0.0" id="node_02x03" junction="True" old_x="200.0" old_y="300.0" type="right_before_left" weight_num="4.0" weight_sum="0.0" x="200.0" y="300.0" />
    <node avg_slowdown_ratio="0.0" id="node_02x04" junction="True" old_x="200.0" old_y="400.0" type="right_before_left" weight_num="4.0" weight_sum="0.0" x="200.0" y="400.0" />
    <node avg_slowdown_ratio="0.0" id="node_02x05" junction="True" old_x="200.0" old_y="500.0" type="right_before_left" weight_num="4.0" weight_sum="0.0" x="172.038897421" x_displacement_sum="-27.9611025795" y="455.262235873" y_displacement_sum="-44.7377641272" />
    <node avg_slowdown_ratio="0.0" id="node_02x06" junction="True" old_x="200.0" old_y="600.0" type="right_before_left" weight_num="4.0" weight_sum="0.0" x="130.426145385" x_displacement_sum="-69.5738546149" y="502.596603539" y_displacement_sum="-97.4033964608" />
    <node avg_slowdown_ratio="0.0" id="node_02x07" junction="True" old_x="200.0" old_y="700.0" type="right_before_left" weight_num="4.0" weight_sum="0.0" x="90.793832846" x_displacement_sum="-109.206167154" y="568.952599415" y_displacement_sum="-131.047400585" />
    <node avg_slowdown_ratio="0.0" id="node_02x08" junction="True" old_x="200.0" old_y="800.0" type="right_before_left" weight_num="4.0" weight_sum="0.0" x="53.808112055" x_displacement_sum="-146.191887945" y="653.808112055" y_displacement_sum="-146.191887945" />
    <node avg_slowdown_ratio="0.0" id="node_02x09" junction="True" old_x="200.0" old_y="900.0" type="right_before_left" weight_num="4.0" weight_sum="0.0" x="20.386871966" x_displacement_sum="-179.613128034" y="756.309497573" y_displacement_sum="-143.690502427" />
    <node avg_slowdown_ratio="0.0" id="node_02x10" junction="True" old_x="200.0" old_y="1000.0" type="right_before_left" weight_num="4.0" weight_sum="0.0" x="-8.242356559" x_displacement_sum="-208.242356559" y="875.054586065" y_displacement_sum="-124.945413935" />
    <node avg_slowdown_ratio="0.0" id="node_02x11" junction="True" old_x="200.0" old_y="1100.0" type="right_before_left" weight_num="4.0" weight_sum="0.0" x="-30.547769557" x_displacement_sum="-230.547769557" y="1007.78089218" y_displacement_sum="-92.2191078229" />
    <node avg_slowdown_ratio="0.0" id="node_02x12" junction="True" old_x="200.0" old_y="1200.0" type="right_before_left" weight_num="4.0" weight_sum="0.0" x="-44.865342062" x_displacement_sum="-244.865342062" y="1151.02693159" y_displacement_sum="-48.9730684124" />
    <node avg_slowdown_ratio="0.0" id="node_02x13" junction="True" old_x="200.0" old_y="1300.0" type="right_before_left" weight_num="4.0" weight_sum="0.0" x="-49.819884727" x_displacement_sum="-249.819884727" y="1300.0" y_displacement_sum="0.0" />
    <node avg_slowdown_ratio="0.0" id="node_02x14" junction="True" old_x="200.0" old_y="1400.0" type="right_before_left" weight_num="4.0" weight_sum="0.0" x="-44.865342062" x_displacement_sum="-244.865342062" y="1448.97306841" y_displacement_sum="48.9730684124" />
    <node avg_slowdown_ratio="0.0" id="node_02x15" junction="True" old_x="200.0" old_y="1500.0" type="right_before_left" weight_num="4.0" weight_sum="0.0" x="-30.547769557" x_displacement_sum="-230.547769557" y="1592.21910782" y_displacement_sum="92.2191078229" />
    <node avg_slowdown_ratio="0.0" id="node_02x16" junction="True" old_x="200.0" old_y="1600.0" type="right_before_left" weight_num="4.0" weight_sum="0.0" x="-8.242356559" x_displacement_sum="-208.242356559" y="1724.94541394" y_displacement_sum="124.945413935" />
    <node avg_slowdown_ratio="0.0" id="node_02x17" junction="True" old_x="200.0" old_y="1700.0" type="right_before_left" weight_num="4.0" weight_sum="0.0" x="20.386871966" x_displacement_sum="-179.613128034" y="1843.69050243" y_displacement_sum="143.690502427" />
    <node avg_slowdown_ratio="0.0" id="node_02x18" junction="True" old_x="200.0" old_y="1800.0" type="right_before_left" weight_num="4.0" weight_sum="0.0" x="53.808112055" x_displacement_sum="-146.191887945" y="1946.19188794" y_displacement_sum="146.191887945" />
    <node avg_slowdown_ratio="0.0" id="node_02x19" junction="True" old_x="200.0" old_y="1900.0" type="right_before_left" weight_num="4.0" weight_sum="0.0" x="90.793832846" x_displacement_sum="-109.206167154" y="2031.04740059" y_displacement_sum="131.047400585" />
    <node avg_slowdown_ratio="0.0" id="node_02x20" junction="True" old_x="200.0" old_y="2000.0" type="right_before_left" weight_num="3.0" weight_sum="0.0" x="130.426145385" x_displacement_sum="-69.5738546149" y="2097.40339646" y_displacement_sum="97.4033964608" />
    <node avg_slowdown_ratio="0.0" id="node_03x00" junction="True" old_x="300.0" old_y="0.0" type="right_before_left" weight_num="3.0" weight_sum="0.0" x="300.0" y="0.0" />
    <node avg_slowdown_ratio="0.0" id="node_03x01" junction="True" old_x="300.0" old_y="100.0" type="right_before_left" weight_num="4.0" weight_sum="0.0" x="300.0" y="100.0" />
    <node avg_slowdown_ratio="0.0" id="node_03x02" junction="True" old_x="300.0" old_y="200.0" type="right_before_left" weight_num="4.0" weight_sum="0.0" x="300.0" y="200.0" />
    <node avg_slowdown_ratio="0.0" id="node_03x03" junction="True" old_x="300.0" old_y="300.0" type="right_before_left" weight_num="4.0" weight_sum="0.0" x="300.0" y="300.0" />
    <node avg_slowdown_ratio="0.0" id="node_03x04" junction="True" old_x="300.0" old_y="400.0" type="right_before_left" weight_num="4.0" weight_sum="0.0" x="294.238140826" x_displacement_sum="-5.76185917409" y="387.035816858" y_displacement_sum="-12.9641831417" />
    <node avg_slowdown_ratio="0.0" id="node_03x05" junction="True" old_x="300.0" old_y="500.0" type="right_before_left" weight_num="4.0" weight_sum="0.0" x="258.028636396" x_displacement_sum="-41.9713636036" y="416.057272793" y_displacement_sum="-83.9427272071" />
    <node avg_slowdown_ratio="0.0" id="node_03x06" junction="True" old_x="300.0" old_y="600.0" type="right_before_left" weight_num="4.0" weight_sum="0.0" x="222.722651653" x_displacement_sum="-77.277348347" y="464.764640393" y_displacement_sum="-135.235359607" />
    <node avg_slowdown_ratio="0.0" id="node_03x07" junction="True" old_x="300.0" old_y="700.0" type="right_before_left" weight_num="4.0" weight_sum="0.0" x="188.65191479" x_displacement_sum="-111.34808521" y="532.977872185" y_displacement_sum="-167.022127815" />
    <node avg_slowdown_ratio="0.0" id="node_03x08" junction="True" old_x="300.0" old_y="800.0" type="right_before_left" weight_num="4.0" weight_sum="0.0" x="156.309497573" x_displacement_sum="-143.690502427" y="620.386871966" y_displacement_sum="-179.613128034" />
    <node avg_slowdown_ratio="0.0" id="node_03x09" junction="True" old_x="300.0" old_y="900.0" type="right_before_left" weight_num="4.0" weight_sum="0.0" x="126.437191715" x_displacement_sum="-173.562808285" y="726.437191715" y_displacement_sum="-173.562808285" />
    <node avg_slowdown_ratio="0.0" id="node_03x10" junction="True" old_x="300.0" old_y="1000.0" type="right_before_left" weight_num="4.0" weight_sum="0.0" x="100.144092218" x_displacement_sum="-199.855907782" y="850.108069164" y_displacement_sum="-149.891930836" />
    <node avg_slowdown_ratio="0.0" id="node_03x11" junction="True" old_x="300.0" old_y="1100.0" type="right_before_left" weight_num="4.0" weight_sum="0.0" x="79.014318198" x_displacement_sum="-220.985681802" y="989.507159099" y_displacement_sum="-110.492840901" />
    <node avg_slowdown_ratio="0.0" id="node_03x12" junction="True" old_x="300.0" old_y="1200.0" type="right_before_left" weight_num="4.0" weight_sum="0.0" x="65.043046512" x_displacement_sum="-234.956953488" y="1141.26076163" y_displacement_sum="-58.739238372" />
    <node avg_slowdown_ratio="0.0" id="node_03x13" junction="True" old_x="300.0" old_y="1300.0" type="right_before_left" weight_num="4.0" weight_sum="0.0" x="60.115273775" x_displacement_sum="-239.884726225" y="1300.0" y_displacement_sum="0.0" />
    <node avg_slowdown_ratio="0.0" id="node_03x14" junction="True" old_x="300.0" old_y="1400.0" type="right_before_left" weight_num="4.0" weight_sum="0.0" x="65.043046512" x_displacement_sum="-234.956953488" y="1458.73923837" y_displacement_sum="58.739238372" />
    <node avg_slowdown_ratio="0.0" id="node_03x15" junction="True" old_x="300.0" old_y="1500.0" type="right_before_left" weight_num="4.0" weight_sum="0.0" x="79.014318198" x_displacement_sum="-220.985681802" y="1610.4928409" y_displacement_sum="110.492840901" />
    <node avg_slowdown_ratio="0.0" id="node_03x16" junction="True" old_x="300.0" old_y="1600.0" type="right_before_left" weight_num="4.0" weight_sum="0.0" x="100.144092218" x_displacement_sum="-199.855907782" y="1749.89193084" y_displacement_sum="149.891930836" />
    <node avg_slowdown_ratio="0.0" id="node_03x17" junction="True" old_x="300.0" old_y="1700.0" type="right_before_left" weight_num="4.0" weight_sum="0.0" x="126.437191715" x_displacement_sum="-173.562808285" y="1873.56280829" y_displacement_sum="173.562808285" />
    <node avg_slowdown_ratio="0.0" id="node_03x18" junction="True" old_x="300.0" old_y="1800.0" type="right_before_left" weight_num="4.0" weight_sum="0.0" x="156.309497573" x_displacement_sum="-143.690502427" y="1979.61312803" y_displacement_sum="179.613128034" />
    <node avg_slowdown_ratio="0.0" id="node_03x19" junction="True" old_x="300.0" old_y="1900.0" type="right_before_left" weight_num="4.0" weight_sum="0.0" x="188.65191479" x_displacement_sum="-111.34808521" y="2067.02212782" y_displacement_sum="167.022127815" />
    <node avg_slowdown_ratio="0.0" id="node_03x20" junction="True" old_x="300.0" old_y="2000.0" type="right_before_left" weight_num="3.0" weight_sum="0.0" x="222.722651653" x_displacement_sum="-77.277348347" y="2135.23535961" y_displacement_sum="135.235359607" />
    <node avg_slowdown_ratio="0.0" id="node_04x00" junction="True" old_x="400.0" old_y="0.0" type="right_before_left" weight_num="3.0" weight_sum="0.0" x="400.0" y="0.0" />
    <node avg_slowdown_ratio="0.0" id="node_04x01" junction="True" old_x="400.0" old_y="100.0" type="right_before_left" weight_num="4.0" weight_sum="0.0" x="400.0" y="100.0" />
    <node avg_slowdown_ratio="0.0" id="node_04x02" junction="True" old_x="400.0" old_y="200.0" type="right_before_left" weight_num="4.0" weight_sum="0.0" x="400.0" y="200.0" />
    <node avg_slowdown_ratio="0.0" id="node_04x03" junction="True" old_x="400.0" old_y="300.0" type="right_before_left" weight_num="4.0" weight_sum="0.0" x="387.035816858" x_displacement_sum="-12.9641831417" y="294.238140826" y_displacement_sum="-5.76185917409" />
    <node avg_slowdown_ratio="0.0" id="node_04x04" junction="True" old_x="400.0" old_y="400.0" type="right_before_left" weight_num="4.0" weight_sum="0.0" x="339.240144947" x_displacement_sum="-60.7598550529" y="339.240144947" y_displacement_sum="-60.7598550529" />
    <node avg_slowdown_ratio="0.0" id="node_04x05" junction="True" old_x="400.0" old_y="500.0" type="right_before_left" weight_num="4.0" weight_sum="0.0" x="286.861591261" x_displacement_sum="-113.138408739" y="368.536485014" y_displacement_sum="-131.463514986" />
    <node avg_slowdown_ratio="0.0" id="node_04x06" junction="True" old_x="400.0" old_y="600.0" type="right_before_left" weight_num="4.0" weight_sum="0.0" x="244.209626395" x_displacement_sum="-155.790373605" y="424.107290093" y_displacement_sum="-175.892709907" />
    <node avg_slowdown_ratio="0.0" id="node_04x07" junction="True" old_x="400.0" old_y="700.0" type="right_before_left" weight_num="4.0" weight_sum="0.0" x="211.974681458" x_displacement_sum="-188.025318542" y="502.782215946" y_displacement_sum="-197.217784054" />
    <node avg_slowdown_ratio="0.0" id="node_04x08" junction="True" old_x="400.0" old_y="800.0" type="right_before_left" weight_num="4.0" weight_sum="0.0" x="190.626413238" x_displacement_sum="-209.373586762" y="601.138551533" y_displacement_sum="-198.861448467" />
    <node avg_slowdown_ratio="0.0" id="node_04x09" junction="True" old_x="400.0" old_y="900.0" type="right_before_left" weight_num="4.0" weight_sum="0.0" x="180.464879397" x_displacement_sum="-219.535120603" y="715.620356611" y_displacement_sum="-184.379643389" />
    <node avg_slowdown_ratio="0.0" id="node_04x10" junction="True" old_x="400.0" old_y="1000.0" type="right_before_left" weight_num="4.0" weight_sum="0.0" x="181.80102905" x_displacement_sum="-218.19897095" y="842.560884103" y_displacement_sum="-157.439115897" />
    <node avg_slowdown_ratio="0.0" id="node_04x11" junction="True" old_x="400.0" old_y="1100.0" type="right_before_left" weight_num="4.0" weight_sum="0.0" x="195.280284904" x_displacement_sum="-204.719715096" y="977.924837871" y_displacement_sum="-122.075162129" />
    <node avg_slowdown_ratio="0.0" id="node_04x12" junction="True" old_x="400.0" old_y="1200.0" type="right_before_left" weight_num="4.0" weight_sum="0.0" x="194.936678746" x_displacement_sum="-205.063321254" y="1131.64555958" y_displacement_sum="-68.3544404181" />
    <node avg_slowdown_ratio="0.0" id="node_04x13" junction="True" old_x="400.0" old_y="1300.0" type="right_before_left" weight_num="4.0" weight_sum="0.0" x="190.064841498" x_displacement_sum="-209.935158502" y="1300.0" y_displacement_sum="0.0" />
    <node avg_slowdown_ratio="0.0" id="node_04x14" junction="True" old_x="400.0" old_y="1400.0" type="right_before_left" weight_num="4.0" weight_sum="0.0" x="194.936678746" x_displacement_sum="-205.063321254" y="1468.35444042" y_displacement_sum="68.3544404181" />
    <node avg_slowdown_ratio="0.0" id="node_04x15" junction="True" old_x="400.0" old_y="1500.0" type="right_before_left" weight_num="4.0" weight_sum="0.0" x="208.244468046" x_displacement_sum="-191.755531954" y="1627.8370213" y_displacement_sum="127.837021303" />
    <node avg_slowdown_ratio="0.0" id="node_04x16" junction="True" old_x="400.0" old_y="1600.0" type="right_before_left" weight_num="4.0" weight_sum="0.0" x="227.37092034" x_displacement_sum="-172.62907966" y="1772.62907966" y_displacement_sum="172.62907966" />
    <node avg_slowdown_ratio="0.0" id="node_04x17" junction="True" old_x="400.0" old_y="1700.0" type="right_before_left" weight_num="4.0" weight_sum="0.0" x="250.108069164" x_displacement_sum="-149.891930836" y="1899.85590778" y_displacement_sum="199.855907782" />
    <node avg_slowdown_ratio="0.0" id="node_04x18" junction="True" old_x="400.0" old_y="1800.0" type="right_before_left" weight_num="4.0" weight_sum="0.0" x="275.054586065" x_displacement_sum="-124.945413935" y="2008.24235656" y_displacement_sum="208.242356559" />
    <node avg_slowdown_ratio="0.0" id="node_04x19" junction="True" old_x="400.0" old_y="1900.0" type="right_before_left" weight_num="4.0" weight_sum="0.0" x="301.391107973" x_displacement_sum="-98.608892027" y="2097.21778405" y_displacement_sum="197.217784054" />
    <node avg_slowdown_ratio="0.0" id="node_04x20" junction="True" old_x="400.0" old_y="2000.0" type="right_before_left" weight_num="3.0" weight_sum="0.0" x="328.637799222" x_displacement_sum="-71.3622007777" y="2166.51180182" y_displacement_sum="166.511801815" />
    <node avg_slowdown_ratio="0.0" id="node_05x00" junction="True" old_x="500.0" old_y="0.0" type="right_before_left" weight_num="3.0" weight_sum="0.0" x="500.0" y="0.0" />
    <node avg_slowdown_ratio="0.0" id="node_05x01" junction="True" old_x="500.0" old_y="100.0" type="right_before_left" weight_num="4.0" weight_sum="0.0" x="500.0" y="100.0" />
    <node avg_slowdown_ratio="0.0" id="node_05x02" junction="True" old_x="500.0" old_y="200.0" type="right_before_left" weight_num="4.0" weight_sum="0.0" x="455.262235873" x_displacement_sum="-44.7377641272" y="172.038897421" y_displacement_sum="-27.9611025795" />
    <node avg_slowdown_ratio="0.0" id="node_05x03" junction="True" old_x="500.0" old_y="300.0" type="right_before_left" weight_num="4.0" weight_sum="0.0" x="416.057272793" x_displacement_sum="-83.9427272071" y="258.028636396" y_displacement_sum="-41.9713636036" />
    <node avg_slowdown_ratio="0.0" id="node_05x04" junction="True" old_x="500.0" old_y="400.0" type="right_before_left" weight_num="4.0" weight_sum="0.0" x="368.536485015" x_displacement_sum="-131.463514985" y="286.861591261" y_displacement_sum="-113.138408739" />
    <node avg_slowdown_ratio="0.0" id="node_05x05" junction="True" old_x="500.0" old_y="500.0" type="right_before_left" weight_num="4.0" weight_sum="0.0" x="325.21523256" x_displacement_sum="-174.78476744" y="325.21523256" y_displacement_sum="-174.78476744" />
    <node avg_slowdown_ratio="0.0" id="node_05x06" junction="True" old_x="500.0" old_y="600.0" type="right_before_left" weight_num="4.0" weight_sum="0.0" x="291.15240181" x_displacement_sum="-208.84759819" y="390.655507677" y_displacement_sum="-209.344492323" />
    <node avg_slowdown_ratio="0.0" id="node_05x07" junction="True" old_x="500.0" old_y="700.0" type="right_before_left" weight_num="4.0" weight_sum="0.0" x="267.043333427" x_displacement_sum="-232.956666573" y="479.746714982" y_displacement_sum="-220.253285018" />
    <node avg_slowdown_ratio="0.0" id="node_05x08" junction="True" old_x="500.0" old_y="800.0" type="right_before_left" weight_num="4.0" weight_sum="0.0" x="253.226195483" x_displacement_sum="-246.773804517" y="588.77156753" y_displacement_sum="-211.22843247" />
    <node avg_slowdown_ratio="0.0" id="node_05x09" junction="True" old_x="500.0" old_y="900.0" type="right_before_left" weight_num="4.0" weight_sum="0.0" x="249.679345147" x_displacement_sum="-250.320654853" y="713.971271686" y_displacement_sum="-186.028728314" />
    <node avg_slowdown_ratio="0.0" id="node_05x10" junction="True" old_x="500.0" old_y="1000.0" type="right_before_left" weight_num="4.0" weight_sum="0.0" x="256.175728104" x_displacement_sum="-243.824271896" y="851.739687018" y_displacement_sum="-148.260312982" />
    <node avg_slowdown_ratio="0.0" id="node_05x11" junction="True" old_x="500.0" old_y="1100.0" type="right_before_left" weight_num="4.0" weight_sum="0.0" x="272.666570722" x_displacement_sum="-227.333429278" y="998.580661533" y_displacement_sum="-101.419338467" />
    <node avg_slowdown_ratio="0.0" id="node_05x12" junction="True" old_x="500.0" old_y="1200.0" type="right_before_left" weight_num="4.0" weight_sum="0.0" x="300.015815423" x_displacement_sum="-199.984184577" y="1150.33789235" y_displacement_sum="-49.6621076457" />
    <node avg_slowdown_ratio="0.0" id="node_05x13" junction="True" old_x="500.0" old_y="1300.0" type="right_before_left" weight_num="4.0" weight_sum="0.0" x="340.028818444" x_displacement_sum="-159.971181556" y="1300.0" y_displacement_sum="0.0" />