<?xml version='1.0' encoding='UTF-8'?>
<nodes xmlns:xsi="http://www.w3.org/2001/XMLSchema-instance" version="0.27" xsi:noNamespaceSchemaLocation="http://sumo.dlr.de/xsd/nodes_file.xsd">
    <location convBoundary="0.00,0.00,2000.00,2000.00" netOffset="-224973.31,-2700122.99" origBoundary="54.286966,24.391306,54.609531,24.591038" projParameter="+proj=utm +zone=40 +ellps=WGS84 +datum=WGS84 +units=m +no_defs" />

    <node id="node_0" type="priority" x="0.00" y="0.00" />
    <node id="node_1" type="priority" x="0.00" y="100.00" />
    <node id="node_2" type="priority" x="0.00" y="200.00" />
    <node id="node_3" type="priority" x="0.00" y="300.00" />
    <node id="node_4" type="priority" x="0.00" y="400.00" />
    <node id="node_5" type="priority" x="0.00" y="500.00" />
    <node id="node_6" type="priority" x="0.00" y="600.00" />
    <node id="node_7" type="priority" x="0.00" y="700.00" />
    <node id="node_8" type="priority" x="0.00" y="800.00" />
    <node id="node_9" type="priority" x="0.00" y="900.00" />
    <node id="node_10" type="priority" x="0.00" y="1000.00" />
    <node id="node_11" type="priority" x="0.00" y="1100.00" />
    <node id="node_12" type="priority" x="0.00" y="1200.00" />
    <node id="node_13" type="priority" x="0.00" y="1300.00" />
    <node id="node_14" type="priority" x="0.00" y="1400.00" />
    <node id="node_15" type="priority" x="0.00" y="1500.00" />
    <node id="node_16" type="priority" x="0.00" y="1600.00" />
    <node id="node_17" type="priority" x="0.00" y="1700.00" />
    <node id="node_18" type="priority" x="0.00" y="1800.00" />
    <node id="node_19" type="priority" x="0.00" y="1900.00" />
    <node id="node_20" type="priority" x="0.00" y="2000.00" />
    <node id="node_21" type="priority" x="100.00" y="0.00" />
    <node id="node_22" type="priority" x="100.00" y="100.00" />
    <node id="node_23" type="priority" x="100.00" y="200.00" />
    <node id="node_24" type="priority" x="100.00" y="300.00" />
    <node id="node_25" type="priority" x="100.00" y="400.00" />
    <node id="node_26" type="priority" x="100.00" y="500.00" />
    <node id="node_27" type="priority" x="100.00" y="600.00" />
    <node id="node_28" type="priority" x="100.00" y="700.00" />
    <node id="node_29" type="priority" x="100.00" y="800.00" />
    <node id="node_30" type="priority" x="100.00" y="900.00" />
    <node id="node_31" type="priority" x="100.00" y="1000.00" />
    <node id="node_32" type="priority" x="100.00" y="1100.00" />
    <node id="node_33" type="priority" x="100.00" y="1200.00" />
    <node id="node_34" type="priority" x="100.00" y="1300.00" />
    <node id="node_35" type="priority" x="100.00" y="1400.00" />
    <node id="node_36" type="priority" x="100.00" y="1500.00" />
    <node id="node_37" type="priority" x="100.00" y="1600.00" />
    <node id="node_38" type="priority" x="100.00" y="1700.00" />
    <node id="node_39" type="priority" x="100.00" y="1800.00" />
    <node id="node_40" type="priority" x="100.00" y="1900.00" />
    <node id="node_41" type="priority" x="100.00" y="2000.00" />
    <node id="node_42" type="priority" x="200.00" y="0.00" />
    <node id="node_43" type="priority" x="200.00" y="100.00" />
    <node id="node_44" type="priority" x="200.00" y="200.00" />
    <node id="node_45" type="priority" x="200.00" y="300.00" />
    <node id="node_46" type="priority" x="200.00" y="400.00" />
    <node id="node_47" type="priority" x="200.00" y="500.00" />
    <node id="node_48" type="priority" x="200.00" y="600.00" />
    <node id="node_49" type="priority" x="200.00" y="700.00" />
    <node id="node_50" type="priority" x="200.00" y="800.00" />
    <node id="node_51" type="priority" x="200.00" y="900.00" />
    <node id="node_52" type="priority" x="200.00" y="1000.00" />
    <node id="node_53" type="priority" x="200.00" y="1100.00" />
    <node id="node_54" type="priority" x="200.00" y="1200.00" />
    <node id="node_55" type="priority" x="200.00" y="1300.00" />
    <node id="node_56" type="priority" x="200.00" y="1400.00" />
    <node id="node_57" type="priority" x="200.00" y="1500.00" />
    <node id="node_58" type="priority" x="200.00" y="1600.00" />
    <node id="node_59" type="priority" x="200.00" y="1700.00" />
    <node id="node_60" type="priority" x="200.00" y="1800.00" />
    <node id="node_61" type="priority" x="200.00" y="1900.00" />
    <node id="node_62" type="priority" x="200.00" y="2000.00" />
    <node id="node_63" type="priority" x="300.00" y="0.00" />
    <node id="node_64" type="priority" x="300.00" y="100.00" />
    <node id="node_65" type="priority" x="300.00" y="200.00" />
    <node id="node_66" type="priority" x="300.00" y="300.00" />
    <node id="node_67" type="priority" x="300.00" y="400.00" />
    <node id="node_68" type="priority" x="300.00" y="500.00" />
    <node id="node_69" type="priority" x="300.00" y="600.00" />
    <node id="node_70" type="priority" x="300.00" y="700.00" />
    <node id="node_71" type="priority" x="300.00" y="800.00" />
    <node id="node_72" type="priority" x="300.00" y="900.00" />
    <node id="node_73" type="priority" x="300.00" y="1000.00" />
    <node id="node_74" type="priority" x="300.00" y="1100.00" />
    <node id="node_75" type="priority" x="300.00" y="1200.00" />
    <node id="node_76" type="priority" x="300.00" y="1300.00" />
    <node id="node_77" type="priority" x="300.00" y="1400.00" />
    <node id="node_78" type="priority" x="300.00" y="1500.00" />
    <node id="node_79" type="priority" x="300.00" y="1600.00" />
    <node id="node_80" type="priority" x="300.00" y="1700.00" />
    <node id="node_81" type="priority" x="300.00" y="1800.00" />
    <node id="node_82" type="priority" x="300.00" y="1900.00" />
    <node id="node_83" type="priority" x="300.00" y="2000.00" />
    <node id="node_84" type="priority" x="400.00" y="0.00" />
    <node id="node_85" type="priority" x="400.00" y="100.00" />
    <node id="node_86" type="priority" x="400.00" y="200.00" />
    <node id="node_87" type="priority" x="400.00" y="300.00" />
    <node id="node_88" type="priority" x="400.00" y="400.00" />
    <node id="node_89" type="priority" x="400.00" y="500.00" />
    <node id="node_90" type="priority" x="400.00" y="600.00" />
    <node id="node_91" type="priority" x="400.00" y="700.00" />
    <node id="node_92" type="priority" x="400.00" y="800.00" />
    <node id="node_93" type="priority" x="400.00" y="900.00" />
    <node id="node_94" type="priority" x="400.00" y="1000.00" />
    <node id="node_95" type="priority" x="400.00" y="1100.00" />
    <node id="node_96" type="priority" x="400.00" y="1200.00" />
    <node id="node_97" type="priority" x="400.00" y="1300.00" />
    <node id="node_98" type="priority" x="400.00" y="1400.00" />
    <node id="node_99" type="priority" x="400.00" y="1500.00" />
    <node id="node_100" type="priority" x="400.00" y="1600.00" />
    <node id="node_101" type="priority" x="400.00" y="1700.00" />
    <node id="node_102" type="priority" x="400.00" y="1800.00" />
    <node id="node_103" type="priority" x="400.00" y="1900.00" />
    <node id="node_104" type="priority" x="400.00" y="2000.00" />
    <node id="node_105" type="priority" x="500.00" y="0.00" />
    <node id="node_106" type="priority" x="500.00" y="100.00" />
    <node id="node_107" type="priority" x="500.00" y="200.00" />
    <node id="node_108" type="priority" x="500.00" y="300.00" />
    <node id="node_109" type="priority" x="500.00" y="400.00" />
    <node id="node_110" type="priority" x="500.00" y="500.00" />
    <node id="node_111" type="priority" x="500.00" y="600.00" />
    <node id="node_112" type="priority" x="500.00" y="700.00" />
    <node id="node_113" type="priority" x="500.00" y="800.00" />
    <node id="node_114" type="priority" x="500.00" y="900.00" />
    <node id="node_115" type="priority" x="500.00" y="1000.00" />
    <node id="node_116" type="priority" x="500.00" y="1100.00" />
    <node id="node_117" type="priority" x="500.00" y="1200.00" />
    <node id="node_118" type="priority" x="500.00" y="1300.00" />
    <node id="node_119" type="priority" x="500.00" y="1400.00" />
    <node id="node_120" type="priority" x="500.00" y="1500.00" />
    <node id="node_121" type="priority" x="500.00" y="1600.00" />
    <node id="node_122" type="priority" x="500.00" y="1700.00" />
    <node id="node_123" type="priority" x="500.00" y="1800.00" />
    <node id="node_124" type="priority" x="500.00" y="1900.00" />
    <node id="node_125" type="priority" x="500.00" y="2000.00" />
    <node id="node_126" type="priority" x="600.00" y="0.00" />
    <node id="node_127" type="priority" x="600.00" y="100.00" />
    <node id="node_128" type="priority" x="600.00" y="200.00" />
    <node id="node_129" type="priority" x="600.00" y="300.00" />
    <node id="node_130" type="priority" x="600.00" y="400.00" />
    <node id="node_131" type="priority" x="600.00" y="500.00" />
    <node id="node_132" type="priority" x="600.00" y="600.00" />
    <node id="node_133" type="priority" x="600.00" y="700.00" />
    <node id="node_134" type="priority" x="600.00" y="800.00" />
    <node id="node_135" type="priority" x="600.00" y="900.00" />
    <node id="node_136" type="priority" x="600.00" y="1000.00" />
    <node id="node_137" type="priority" x="600.00" y="1100.00" />
    <node id="node_138" type="priority" x="600.00" y="1200.00" />
    <node id="node_139" type="priority" x="600.00" y="1300.00" />
    <node id="node_140" type="priority" x="600.00" y="1400.00" />
    <node id="node_141" type="priority" x="600.00" y="1500.00" />
    <node id="node_142" type="priority" x="600.00" y="1600.00" />
    <node id="node_143" type="priority" x="600.00" y="1700.00" />
    <node id="node_144" type="priority" x="600.00" y="1800.00" />
    <node id="node_145" type="priority" x="600.00" y="1900.00" />
    <node id="node_146" type="priority" x="600.00" y="2000.00" />
    <node id="node_147" type="priority" x="700.00" y="0.00" />
    <node id="node_148" type="priority" x="700.00" y="100.00" />
    <node id="node_149" type="priority" x="700.00" y="200.00" />
    <node id="node_150" type="priority" x="700.00" y="300.00" />
    <node id="node_151" type="priority" x="700.00" y="400.00" />
    <node id="node_152" type="priority" x="700.00" y="500.00" />
    <node id="node_153" type="priority" x="700.00" y="600.00" />
    <node id="node_154" type="priority" x="700.00" y="700.00" />
    <node id="node_155" type="priority" x="700.00" y="800.00" />
    <node id="node_156" type="priority" x="700.00" y="900.00" />
    <node id="node_157" type="priority" x="700.00" y="1000.00" />
    <node id="node_158" type="priority" x="700.00" y="1100.00" />
    <node id="node_159" type="priority" x="700.00" y="1200.00" />
    <node id="node_160" type="priority" x="700.00" y="1300.00" />
    <node id="node_161" type="priority" x="700.00" y="1400.00" />
    <node id="node_162" type="priority" x="700.00" y="1500.00" />
    <node id="node_163" type="priority" x="700.00" y="1600.00" />
    <node id="node_164" type="priority" x="700.00" y="1700.00" />
    <node id="node_165" type="priority" x="700.00" y="1800.00" />
    <node id="node_166" type="priority" x="700.00" y="1900.00" />
    <node id="node_167" type="priority" x="700.00" y="2000.00" />
    <node id="node_168" type="priority" x="800.00" y="0.00" />
    <node id="node_169" type="priority" x="800.00" y="100.00" />
    <node id="node_170" type="priority" x="800.00" y="200.00" />
    <node id="node_171" type="priority" x="800.00" y="300.00" />
    <node id="node_172" type="priority" x="800.00" y="400.00" />
    <node id="node_173" type="priority" x="800.00" y="500.00" />
    <node id="node_174" type="priority" x="800.00" y="600.00" />
    <node id="node_175" type="priority" x="800.00" y="700.00" />
    <node id="node_176" type="priority" x="800.00" y="800.00" />
    <node id="node_177" type="priority" x="800.00" y="900.00" />
    <node id="node_178" type="priority" x="800.00" y="1000.00" />
    <node id="node_179" type="priority" x="800.00" y="1100.00" />
    <node id="node_180" type="priority" x="800.00" y="1200.00" />
    <node id="node_181" type="priority" x="800.00" y="1300.00" />
    <node id="node_182" type="priority" x="800.00" y="1400.00" />
    <node id="node_183" type="priority" x="800.00" y="1500.00" />
    <node id="node_184" type="priority" x="800.00" y="1600.00" />
    <node id="node_185" type="priority" x="800.00" y="1700.00" />
    <node id="node_186" type="priority" x="800.00" y="1800.00" />
    <node id="node_187" type="priority" x="800.00" y="1900.00" />
    <node id="node_188" type="priority" x="800.00" y="2000.00" />
    <node id="node_189" type="priority" x="900.00" y="0.00" />
    <node id="node_190" type="priority" x="900.00" y="100.00" />
    <node id="node_191" type="priority" x="900.00" y="200.00" />
    <node id="node_192" type="priority" x="900.00" y="300.00" />
    <node id="node_193" type="priority" x="900.00" y="400.00" />
    <node id="node_194" type="priority" x="900.00" y="500.00" />
    <node id="node_195" type="priority" x="900.00" y="600.00" />
    <node id="node_196" type="priority" x="900.00" y="700.00" />
    <node id="node_197" type="priority" x="900.00" y="800.00" />
    <node id="node_198" type="priority" x="900.00" y="900.00" />
    <node id="node_199" type="priority" x="900.00" y="1000.00" />
    <node id="node_200" type="priority" x="900.00" y="1100.00" />
    <node id="node_201" type="priority" x="900.00" y="1200.00" />
    <node id="node_202" type="priority" x="900.00" y="1300.00" />
    <node id="node_203" type="priority" x="900.00" y="1400.00" />
    <node id="node_204" type="priority" x="900.00" y="1500.00" />
    <node id="node_205" type="priority" x="900.00" y="1600.00" />
    <node id="node_206" type="priority" x="900.00" y="1700.00" />
    <node id="node_207" type="priority" x="900.00" y="1800.00" />
    <node id="node_208" type="priority" x="900.00" y="1900.00" />
    <node id="node_209" type="priority" x="900.00" y="2000.00" />
    <node id="node_210" type="priority" x="1000.00" y="0.00" />
    <node id="node_211" type="priority" x="1000.00" y="100.00" />
    <node id="node_212" type="priority" x="1000.00" y="200.00" />
    <node id="node_213" type="priority" x="1000.00" y="300.00" />
    <node id="node_214" type="priority" x="1000.00" y="400.00" />
    <node id="node_215" type="priority" x="1000.00" y="500.00" />
    <node id="node_216" type="priority" x="1000.00" y="600.00" />
    <node id="node_217" type="priority" x="1000.00" y="700.00" />
    <node id="node_218" type="priority" x="1000.00" y="800.00" />
    <node id="node_219" type="priority" x="1000.00" y="900.00" />
    <node id="node_220" type="priority" x="1000.00" y="1000.00" />
    <node id="node_221" type="priority" x="1000.00" y="1100.00" />
    <node id="node_222" type="priority" x="1000.00" y="1200.00" />
    <node id="node_223" type="priority" x="1000.00" y="1300.00" />
    <node id="node_224" type="priority" x="1000.00" y="1400.00" />
    <node id="node_225" type="priority" x="1000.00" y="1500.00" />
    <node id="node_226" type="priority" x="1000.00" y="1600.00" />
    <node id="node_227" type="priority" x="1000.00" y="1700.00" />
    <node id="node_228" type="priority" x="1000.00" y="1800.00" />
    <node id="node_229" type="priority" x="1000.00" y="1900.00" />
    <node id="node_230" type="priority" x="1000.00" y="2000.00" />
    <node id="node_231" type="priority" x="1100.00" y="0.00" />
    <node id="node_232" type="priority" x="1100.00" y="100.00" />
    <node id="node_233" type="priority" x="1100.00" y="200.00" />
    <node id="node_234" type="priority" x="1100.00" y="300.00" />
    <node id="node_235" type="priority" x="1100.00" y="400.00" />
    <node id="node_236" type="priority" x="1100.00" y="500.00" />
    <node id="node_237" type="priority" x="1100.00" y="600.00" />
    <node id="node_238" type="priority" x="1100.00" y="700.00" />
    <node id="node_239" type="priority" x="1100.00" y="800.00" />
    <node id="node_240" type="priority" x="1100.00" y="900.00" />
    <node id="node_241" type="priority" x="1100.00" y="1000.00" />
    <node id="node_242" type="priority" x="1100.00" y="1100.00" />
    <node id="node_243" type="priority" x="1100.00" y="1200.00" />
    <node id="node_244" type="priority" x="1100.00" y="1300.00" />
    <node id="node_245" type="priority" x="1100.00" y="1400.00" />
    <node id="node_246" type="priority" x="1100.00" y="1500.00" />
    <node id="node_247" type="priority" x="1100.00" y="1600.00" />
    <node id="node_248" type="priority" x="1100.00" y="1700.00" />
    <node id="node_249" type="priority" x="1100.00" y="1800.00" />
    <node id="node_250" type="priority" x="1100.00" y="1900.00" />
    <node id="node_251" type="priority" x="1100.00" y="2000.00" />
    <node id="node_252" type="priority" x="1200.00" y="0.00" />
    <node id="node_253" type="priority" x="1200.00" y="100.00" />
    <node id="node_254" type="priority" x="1200.00" y="200.00" />
    <node id="node_255" type="priority" x="1200.00" y="300.00" />
    <node id="node_256" type="priority" x="1200.00" y="400.00" />
    <node id="node_257" type="priority" x="1200.00" y="500.00" />
    <node id="node_258" type="priority" x="1200.00" y="600.00" />
    <node id="node_259" type="priority" x="1200.00" y="700.00" />
    <node id="node_260" type="priority" x="1200.00" y="800.00" />
    <node id="node_261" type="priority" x="1200.00" y="900.00" />
    <node id="node_262" type="priority" x="1200.00" y="1000.00" />
    <node id="node_263" type="priority" x="1200.00" y="1100.00" />
    <node id="node_264" type="priority" x="1200.00" y="1200.00" />
    <node id="node_265" type="priority" x="1200.00" y="1300.00" />
    <node id="node_266" type="priority" x="1200.00" y="1400.00" />
    <node id="node_267" type="priority" x="1200.00" y="1500.00" />
    <node id="node_268" type="priority" x="1200.00" y="1600.00" />
    <node id="node_269" type="priority" x="1200.00" y="1700.00" />
    <node id="node_270" type="priority" x="1200.00" y="1800.00" />
    <node id="node_271" type="priority" x="1200.00" y="1900.00" />
    <node id="node_272" type="priority" x="1200.00" y="2000.00" />
    <node id="node_273" type="priority" x="1300.00" y="0.00" />
    <node id="node_274" type="priority" x="1300.00" y="100.00" />
    <node id="node_275" type="priority" x="1300.00" y="200.00" />
    <node id="node_276" type="priority" x="1300.00" y="300.00" />
    <node id="node_277" type="priority" x="1300.00" y="400.00" />
    <node id="node_278" type="priority" x="1300.00" y="500.00" />
    <node id="node_279" type="priority" x="1300.00" y="600.00" />
    <node id="node_280" type="priority" x="1300.00" y="700.00" />
    <node id="node_281" type="priority" x="1300.00" y="800.00" />
    <node id="node_282" type="priority" x="1300.00" y="900.00" />
    <node id="node_283" type="priority" x="1300.00" y="1000.00" />
    <node id="node_284" type="priority" x="1300.00" y="1100.00" />
    <node id="node_285" type="priority" x="1300.00" y="1200.00" />
    <node id="node_286" type="priority" x="1300.00" y="1300.00" />
    <node id="node_287" type="priority" x="1300.00" y="1400.00" />
    <node id="node_288" type="priority" x="1300.00" y="1500.00" />
    <node id="node_289" type="priority" x="1300.00" y="1600.00" />
    <node id="node_290" type="priority" x="1300.00" y="1700.00" />
    <node id="node_291" type="priority" x="1300.00" y="1800.00" />
    <node id="node_292" type="priority" x="1300.00" y="1900.00" />
    <node id="node_293" type="priority" x="1300.00" y="2000.00" />
    <node id="node_294" type="priority" x="1400.00" y="0.00" />
    <node id="node_295" type="priority" x="1400.00" y="100.00" />
    <node id="node_296" type="priority" x="1400.00" y="200.00" />
    <node id="node_297" type="priority" x="1400.00" y="300.00" />
    <node id="node_298" type="priority" x="1400.00" y="400.00" />
    <node id="node_299" type="priority" x="1400.00" y="500.00" />
    <node id="node_300" type="priority" x="1400.00" y="600.00" />
    <node id="node_301" type="priority" x="1400.00" y="700.00" />
    <node id="node_302" type="priority" x="1400.00" y="800.00" />
    <node id="node_303" type="priority" x="1400.00" y="900.00" />
    <node id="node_304" type="priority" x="1400.00" y="1000.00" />
    <node id="node_305" type="priority" x="1400.00" y="1100.00" />
    <node id="node_306" type="priority" x="1400.00" y="1200.00" />
    <node id="node_307" type="priority" x="1400.00" y="1300.00" />
    <node id="node_308" type="priority" x="1400.00" y="1400.00" />
    <node id="node_309" type="priority" x="1400.00" y="1500.00" />
    <node id="node_310" type="priority" x="1400.00" y="1600.00" />
    <node id="node_311" type="priority" x="1400.00" y="1700.00" />
    <node id="node_312" type="priority" x="1400.00" y="1800.00" />
    <node id="node_313" type="priority" x="1400.00" y="1900.00" />
    <node id="node_314" type="priority" x="1400.00" y="2000.00" />
    <node id="node_315" type="priority" x="1500.00" y="0.00" />
    <node id="node_316" type="priority" x="1500.00" y="100.00" />
    <node id="node_317" type="priority" x="1500.00" y="200.00" />
    <node id="node_318" type="priority" x="1500.00" y="300.00" />
    <node id="node_319" type="priority" x="1500.00" y="400.00" />
    <node id="node_320" type="priority" x="1500.00" y="500.00" />
    <node id="node_321" type="priority" x="1500.00" y="600.00" />
    <node id="node_322" type="priority" x="1500.00" y="700.00" />
    <node id="node_323" type="priority" x="1500.00" y="800.00" />
    <node id="node_324" type="priority" x="1500.00" y="900.00" />
    <node id="node_325" type="priority" x="1500.00" y="1000.00" />
    <node id="node_326" type="priority" x="1500.00" y="1100.00" />
    <node id="node_327" type="priority" x="1500.00" y="1200.00" />
    <node id="node_328" type="priority" x="1500.00" y="1300.00" />
    <node id="node_329" type="priority" x="1500.00" y="1400.00" />
    <node id="node_330" type="priority" x="1500.00" y="1500.00" />
    <node id="node_331" type="priority" x="1500.00" y="1600.00" />
    <node id="node_332" type="priority" x="1500.00" y="1700.00" />
    <node id="node_333" type="priority" x="1500.00" y="1800.00" />
    <node id="node_334" type="priority" x="1500.00" y="1900.00" />
    <node id="node_335" type="priority" x="1500.00" y="2000.00" />
    <node id="node_336" type="priority" x="1600.00" y="0.00" />
    <node id="node_337" type="priority" x="1600.00" y="100.00" />
    <node id="node_338" type="priority" x="1600.00" y="200.00" />
    <node id="node_339" type="priority" x="1600.00" y="300.00" />
    <node id="node_340" type="priority" x="1600.00" y="400.00" />
    <node id="node_341" type="priority" x="1600.00" y="500.00" />
    <node id="node_342" type="priority" x="1600.00" y="600.00" />
    <node id="node_343" type="priority" x="1600.00" y="700.00" />
    <node id="node_344" type="priority" x="1600.00" y="800.00" />
    <node id="node_345" type="priority" x="1600.00" y="900.00" />
    <node id="node_346" type="priority" x="1600.00" y="1000.00" />
    <node id="node_347" type="priority" x="1600.00" y="1100.00" />
    <node id="node_348" type="priority" x="1600.00" y="1200.00" />
    <node id="node_349" type="priority" x="1600.00" y="1300.00" />
    <node id="node_350" type="priority" x="1600.00" y="1400.00" />
    <node id="node_351" type="priority" x="1600.00" y="1500.00" />
    <node id="node_352" type="priority" x="1600.00" y="1600.00" />
    <node id="node_353" type="priority" x="1600.00" y="1700.00" />
    <node id="node_354" type="priority" x="1600.00" y="1800.00" />
    <node id="node_355" type="priority" x="1600.00" y="1900.00" />
    <node id="node_356" type="priority" x="1600.00" y="2000.00" />
    <node id="node_357" type="priority" x="1700.00" y="0.00" />
    <node id="node_358" type="priority" x="1700.00" y="100.00" />
    <node id="node_359" type="priority" x="1700.00" y="200.00" />
    <node id="node_360" type="priority" x="1700.00" y="300.00" />
    <node id="node_361" type="priority" x="1700.00" y="400.00" />
    <node id="node_362" type="priority" x="1700.00" y="500.00" />
    <node id="node_363" type="priority" x="1700.00" y="600.00" />
    <node id="node_364" type="priority" x="1700.00" y="700.00" />
    <node id="node_365" type="priority" x="1700.00" y="800.00" />
    <node id="node_366" type="priority" x="1700.00" y="900.00" />
    <node id="node_367" type="priority" x="1700.00" y="1000.00" />
    <node id="node_368" type="priority" x="1700.00" y="1100.00" />
    <node id="node_369" type="priority" x="1700.00" y="1200.00" />
    <node id="node_370" type="priority" x="1700.00" y="1300.00" />
    <node id="node_371" type="priority" x="1700.00" y="1400.00" />
    <node id="node_372" type="priority" x="1700.00" y="1500.00" />
    <node id="node_373" type="priority" x="1700.00" y="1600.00" />
    <node id="node_374" type="priority" x="1700.00" y="1700.00" />
    <node id="node_375" type="priority" x="1700.00" y="1800.00" />
    <node id="node_376" type="priority" x="1700.00" y="1900.00" />
    <node id="node_377" type="priority" x="1700.00" y="2000.00" />
    <node id="node_378" type="priority" x="1800.00" y="0.00" />
    <node id="node_379" type="priority" x="1800.00" y="100.00" />
    <node id="node_380" type="priority" x="1800.00" y="200.00" />
    <node id="node_381" type="priority" x="1800.00" y="300.00" />
    <node id="node_382" type="priority" x="1800.00" y="400.00" />
    <node id="node_383" type="priority" x="1800.00" y="500.00" />
    <node id="node_384" type="priority" x="1800.00" y="600.00" />
    <node id="node_385" type="priority" x="1800.00" y="700.00" />
    <node id="node_386" type="priority" x="1800.00" y="800.00" />
    <node id="node_387" type="priority" x="1800.00" y="900.00" />
    <node id="node_388" type="priority" x="1800.00" y="1000.00" />
    <node id="node_389" type="priority" x="1800.00" y="1100.00" />
    <node id="node_390" type="priority" x="1800.00" y="1200.00" />
    <node id="node_391" type="priority" x="1800.00" y="1300.00" />
    <node id="node_392" type="priority" x="1800.00" y="1400.00" />
    <node id="node_393" type="priority" x="1800.00" y="1500.00" />
    <node id="node_394" type="priority" x="1800.00" y="1600.00" />
    <node id="node_395" type="priority" x="1800.00" y="1700.00" />
    <node id="node_396" type="priority" x="1800.00" y="1800.00" />
    <node id="node_397" type="priority" x="1800.00" y="1900.00" />
    <node id="node_398" type="priority" x="1800.00" y="2000.00" />
    <node id="node_399" type="priority" x="1900.00" y="0.00" />
    <node id="node_400" type="priority" x="1900.00" y="100.00" />
    <node id="node_401" type="priority" x="1900.00" y="200.00" />
    <node id="node_402" type="priority" x="1900.00" y="300.00" />
    <node id="node_403" type="priority" x="1900.00" y="400.00" />
    <node id="node_404" type="priority" x="1900.00" y="500.00" />
    <node id="node_405" type="priority" x="1900.00" y="600.00" />
    <node id="node_406" type="priority" x="1900.00" y="700.00" />
    <node id="node_407" type="priority" x="1900.00" y="800.00" />
    <node id="node_408" type="priority" x="1900.00" y="900.00" />
    <node id="node_409" type="priority" x="1900.00" y="1000.00" />
    <node id="node_410" type="priority" x="1900.00" y="1100.00" />
    <node id="node_411" type="priority" x="1900.00" y="1200.00" />
    <node id="node_412" type="priority" x="1900.00" y="1300.00" />
    <node id="node_413" type="priority" x="1900.00" y="1400.00" />
    <node id="node_414" type="priority" x="1900.00" y="1500.00" />
    <node id="node_415" type="priority" x="1900.00" y="1600.00" />
    <node id="node_416" type="priority" x="1900.00" y="1700.00" />
    <node id="node_417" type="priority" x="1900.00" y="1800.00" />
    <node id="node_418" type="priority" x="1900.00" y="1900.00" />
    <node id="node_419" type="priority" x="1900.00" y="2000.00" />
    <node id="node_420" type="priority" x="2000.00" y="0.00" />
    <node id="node_421" type="priority" x="2000.00" y="100.00" />
    <node id="node_422" type="priority" x="2000.00" y="200.00" />
    <node id="node_423" type="priority" x="2000.00" y="300.00" />
    <node id="node_424" type="priority" x="2000.00" y="400.00" />
    <node id="node_425" type="priority" x="2000.00" y="500.00" />
    <node id="node_426" type="priority" x="2000.00" y="600.00" />
    <node id="node_427" type="priority" x="2000.00" y="700.00" />
    <node id="node_428" type="priority" x="2000.00" y="800.00" />
    <node id="node_429" type="priority" x="2000.00" y="900.00" />
    <node id="node_430" type="priority" x="2000.00" y="1000.00" />
    <node id="node_431" type="priority" x="2000.00" y="1100.00" />
    <node id="node_432" type="priority" x="2000.00" y="1200.00" />
    <node id="node_433" type="priority" x="2000.00" y="1300.00" />
    <node id="node_434" type="priority" x="2000.00" y="1400.00" />
    <node id="node_435" type="priority" x="2000.00" y="1500.00" />
    <node id="node_436" type="priority" x="2000.00" y="1600.00" />
    <node id="node_437" type="priority" x="2000.00" y="1700.00" />
    <node id="node_438" type="priority" x="2000.00" y="1800.00" />
    <node id="node_439" type="priority" x="2000.00" y="1900.00" />
    <node id="node_440" type="priority" x="2000.00" y="2000.00" />
</nodes>