<?xml version='1.0' encoding='UTF-8'?>
<nodes xmlns:xsi="http://www.w3.org/2001/XMLSchema-instance" version="0.27" xsi:noNamespaceSchemaLocation="http://sumo.dlr.de/xsd/nodes_file.xsd">
    <location convBoundary="0.00,0.00,2000.00,2000.00" netOffset="-224973.31,-2700122.99" origBoundary="54.286966,24.391306,54.609531,24.591038" projParameter="+proj=utm +zone=40 +ellps=WGS84 +datum=WGS84 +units=m +no_defs" />

    <node avg_slowdown_ratio="0.235781137509" id="node_00x00" type="right_before_left" weight_num="2.0" weight_sum="0.471562275018" x="0.00" y="0.00" />
    <node avg_slowdown_ratio="0.253779697624" id="node_00x01" type="right_before_left" weight_num="2.0" weight_sum="0.507559395248" x="0.00" y="100.00" />
    <node avg_slowdown_ratio="0.27501799856" id="node_00x02" type="right_before_left" weight_num="3.0" weight_sum="0.82505399568" x="0.00" y="200.00" />
    <node avg_slowdown_ratio="0.287976961843" id="node_00x03" type="right_before_left" weight_num="3.0" weight_sum="0.863930885529" x="0.00" y="300.00" />
    <node avg_slowdown_ratio="0.100791936645" id="node_00x04" type="right_before_left" weight_num="1.0" weight_sum="0.100791936645" x="0.00" y="400.00" />
    <node avg_slowdown_ratio="0.268898488121" id="node_00x05" type="right_before_left" weight_num="2.0" weight_sum="0.537796976242" x="0.00" y="500.00" />
    <node avg_slowdown_ratio="0.231821454283" id="node_00x06" type="right_before_left" weight_num="3.0" weight_sum="0.69546436285" x="0.00" y="600.00" />
    <node avg_slowdown_ratio="0.272618190545" id="node_00x07" type="right_before_left" weight_num="3.0" weight_sum="0.817854571635" x="0.00" y="700.00" />
    <node avg_slowdown_ratio="0.239740820734" id="node_00x08" type="right_before_left" weight_num="2.0" weight_sum="0.479481641468" x="0.00" y="800.00" />
    <node avg_slowdown_ratio="0.254139668827" id="node_00x09" type="right_before_left" weight_num="2.0" weight_sum="0.508279337653" x="0.00" y="900.00" />
    <node avg_slowdown_ratio="0.25149988001" id="node_00x10" type="right_before_left" weight_num="3.0" weight_sum="0.754499640029" x="0.00" y="1000.00" />
    <node avg_slowdown_ratio="0.230861531078" id="node_00x11" type="right_before_left" weight_num="3.0" weight_sum="0.692584593233" x="0.00" y="1100.00" />
    <node avg_slowdown_ratio="0.222822174226" id="node_00x12" type="right_before_left" weight_num="2.0" weight_sum="0.445644348453" x="0.00" y="1200.00" />
    <node avg_slowdown_ratio="0.242980561555" id="node_00x13" type="right_before_left" weight_num="2.0" weight_sum="0.48596112311" x="0.00" y="1300.00" />
    <node avg_slowdown_ratio="0.209503239741" id="node_00x14" type="right_before_left" weight_num="1.0" weight_sum="0.209503239741" x="0.00" y="1400.00" />
    <node avg_slowdown_ratio="0.213102951764" id="node_00x15" type="right_before_left" weight_num="2.0" weight_sum="0.426205903528" x="0.00" y="1500.00" />
    <node avg_slowdown_ratio="0.24694024478" id="node_00x16" type="right_before_left" weight_num="3.0" weight_sum="0.740820734341" x="0.00" y="1600.00" />
    <node avg_slowdown_ratio="0.249820014399" id="node_00x17" type="right_before_left" weight_num="3.0" weight_sum="0.749460043197" x="0.00" y="1700.00" />
    <node avg_slowdown_ratio="0.252339812815" id="node_00x18" type="right_before_left" weight_num="2.0" weight_sum="0.50467962563" x="0.00" y="1800.00" />
    <node avg_slowdown_ratio="0.244420446364" id="node_00x19" type="right_before_left" weight_num="2.0" weight_sum="0.488840892728" x="0.00" y="1900.00" />
    <node avg_slowdown_ratio="0.185745140389" id="node_00x20" type="right_before_left" weight_num="1.0" weight_sum="0.185745140389" x="0.00" y="2000.00" />
    <node avg_slowdown_ratio="0.236861051116" id="node_01x00" type="right_before_left" weight_num="3.0" weight_sum="0.710583153348" x="100.00" y="0.00" />
    <node avg_slowdown_ratio="0.219582433405" id="node_01x01" type="right_before_left" weight_num="2.0" weight_sum="0.439164866811" x="100.00" y="100.00" />
    <node avg_slowdown_ratio="0.235421166307" id="node_01x02" type="right_before_left" weight_num="2.0" weight_sum="0.470842332613" x="100.00" y="200.00" />
    <node avg_slowdown_ratio="0.231821454284" id="node_01x03" type="right_before_left" weight_num="3.0" weight_sum="0.695464362851" x="100.00" y="300.00" />
    <node avg_slowdown_ratio="0.242260619151" id="node_01x04" type="right_before_left" weight_num="2.0" weight_sum="0.484521238301" x="100.00" y="400.00" />
    <node avg_slowdown_ratio="0.227501799856" id="node_01x05" type="right_before_left" weight_num="2.0" weight_sum="0.455003599712" x="100.00" y="500.00" />
    <node avg_slowdown_ratio="0.243100551956" id="node_01x06" type="right_before_left" weight_num="3.0" weight_sum="0.729301655868" x="100.00" y="600.00" />
    <node avg_slowdown_ratio="0.0878329733621" id="node_01x07" type="right_before_left" weight_num="1.0" weight_sum="0.0878329733621" x="100.00" y="700.00" />
    <node avg_slowdown_ratio="0.241660667146" id="node_01x08" type="right_before_left" weight_num="3.0" weight_sum="0.724982001439" x="100.00" y="800.00" />
    <node avg_slowdown_ratio="0.230861531077" id="node_01x09" type="right_before_left" weight_num="3.0" weight_sum="0.692584593232" x="100.00" y="900.00" />
    <node avg_slowdown_ratio="0.246220302376" id="node_01x10" type="right_before_left" weight_num="4.0" weight_sum="0.984881209503" x="100.00" y="1000.00" />
    <node avg_slowdown_ratio="0.219942404608" id="node_01x11" type="right_before_left" weight_num="2.0" weight_sum="0.439884809216" x="100.00" y="1100.00" />
    <node avg_slowdown_ratio="0.242980561555" id="node_01x12" type="right_before_left" weight_num="2.0" weight_sum="0.48596112311" x="100.00" y="1200.00" />
    <node avg_slowdown_ratio="0.243340532757" id="node_01x13" type="right_before_left" weight_num="3.0" weight_sum="0.730021598272" x="100.00" y="1300.00" />
    <node avg_slowdown_ratio="0.242860571154" id="node_01x14" type="right_before_left" weight_num="3.0" weight_sum="0.728581713463" x="100.00" y="1400.00" />
    <node avg_slowdown_ratio="0.214902807775" id="node_01x15" type="right_before_left" weight_num="2.0" weight_sum="0.429805615551" x="100.00" y="1500.00" />
    <node avg_slowdown_ratio="0.236861051116" id="node_01x16" type="right_before_left" weight_num="3.0" weight_sum="0.710583153348" x="100.00" y="1600.00" />
    <node avg_slowdown_ratio="0.235421166307" id="node_01x17" type="right_before_left" weight_num="4.0" weight_sum="0.941684665226" x="100.00" y="1700.00" />
    <node avg_slowdown_ratio="0.232901367891" id="node_01x18" type="right_before_left" weight_num="2.0" weight_sum="0.465802735781" x="100.00" y="1800.00" />
    <node avg_slowdown_ratio="0.258099352052" id="node_01x19" type="right_before_left" weight_num="2.0" weight_sum="0.516198704104" x="100.00" y="1900.00" />
    <node avg_slowdown_ratio="0.245020398368" id="node_01x20" type="right_before_left" weight_num="3.0" weight_sum="0.735061195104" x="100.00" y="2000.00" />
    <node avg_slowdown_ratio="0.229661627069" id="node_02x00" type="right_before_left" weight_num="2.0" weight_sum="0.459323254139" x="200.00" y="0.00" />
    <node avg_slowdown_ratio="0.251739860811" id="node_02x01" type="right_before_left" weight_num="3.0" weight_sum="0.755219582433" x="200.00" y="100.00" />
    <node avg_slowdown_ratio="0.237940964723" id="node_02x02" type="right_before_left" weight_num="2.0" weight_sum="0.475881929446" x="200.00" y="200.00" />
    <node avg_slowdown_ratio="0.190064794816" id="node_02x03" type="right_before_left" weight_num="1.0" weight_sum="0.190064794816" x="200.00" y="300.00" />
    <node avg_slowdown_ratio="0.231461483081" id="node_02x04" type="right_before_left" weight_num="2.0" weight_sum="0.462922966163" x="200.00" y="400.00" />
    <node avg_slowdown_ratio="0.171346292297" id="node_02x05" type="right_before_left" weight_num="1.0" weight_sum="0.171346292297" x="200.00" y="500.00" />
    <node avg_slowdown_ratio="0.252219822414" id="node_02x06" type="right_before_left" weight_num="3.0" weight_sum="0.756659467242" x="200.00" y="600.00" />
    <node avg_slowdown_ratio="0.243580513559" id="node_02x07" type="right_before_left" weight_num="3.0" weight_sum="0.730741540677" x="200.00" y="700.00" />
    <node avg_slowdown_ratio="0.286357091432" id="node_02x08" type="right_before_left" weight_num="4.0" weight_sum="1.14542836573" x="200.00" y="800.00" />
    <node avg_slowdown_ratio="0.230381569475" id="node_02x09" type="right_before_left" weight_num="2.0" weight_sum="0.460763138949" x="200.00" y="900.00" />
    <node avg_slowdown_ratio="0.22498200144" id="node_02x10" type="right_before_left" weight_num="2.0" weight_sum="0.449964002879" x="200.00" y="1000.00" />
    <node avg_slowdown_ratio="0.198704103672" id="node_02x11" type="right_before_left" weight_num="1.0" weight_sum="0.198704103672" x="200.00" y="1100.00" />
    <node avg_slowdown_ratio="0.279577633789" id="node_02x12" type="right_before_left" weight_num="3.0" weight_sum="0.838732901368" x="200.00" y="1200.00" />
    <node avg_slowdown_ratio="0.231821454284" id="node_02x14" type="right_before_left" weight_num="2.0" weight_sum="0.463642908567" x="200.00" y="1400.00" />
    <node avg_slowdown_ratio="0.185745140389" id="node_02x15" type="right_before_left" weight_num="1.0" weight_sum="0.185745140389" x="200.00" y="1500.00" />
    <node avg_slowdown_ratio="0.232541396688" id="node_02x16" type="right_before_left" weight_num="2.0" weight_sum="0.465082793377" x="200.00" y="1600.00" />
    <node avg_slowdown_ratio="0.231101511879" id="node_02x17" type="right_before_left" weight_num="2.0" weight_sum="0.462203023758" x="200.00" y="1700.00" />
    <node avg_slowdown_ratio="0.244780417567" id="node_02x18" type="right_before_left" weight_num="3.0" weight_sum="0.734341252701" x="200.00" y="1800.00" />
    <node avg_slowdown_ratio="0.245980321574" id="node_02x19" type="right_before_left" weight_num="3.0" weight_sum="0.737940964723" x="200.00" y="1900.00" />
    <node avg_slowdown_ratio="0.2343412527" id="node_02x20" type="right_before_left" weight_num="2.0" weight_sum="0.4686825054" x="200.00" y="2000.00" />
    <node avg_slowdown_ratio="0.246940244781" id="node_03x00" type="right_before_left" weight_num="2.0" weight_sum="0.493880489561" x="300.00" y="0.00" />
    <node avg_slowdown_ratio="0.235181185505" id="node_03x01" type="right_before_left" weight_num="3.0" weight_sum="0.705543556515" x="300.00" y="100.00" />
    <node avg_slowdown_ratio="0.234941204703" id="node_03x02" type="right_before_left" weight_num="3.0" weight_sum="0.70482361411" x="300.00" y="200.00" />
    <node avg_slowdown_ratio="0.249820014399" id="node_03x03" type="right_before_left" weight_num="3.0" weight_sum="0.749460043197" x="300.00" y="300.00" />
    <node avg_slowdown_ratio="0.2343412527" id="node_03x04" type="right_before_left" weight_num="2.0" weight_sum="0.4686825054" x="300.00" y="400.00" />
    <node avg_slowdown_ratio="0.236501079914" id="node_03x05" type="right_before_left" weight_num="2.0" weight_sum="0.473002159827" x="300.00" y="500.00" />
    <node avg_slowdown_ratio="0.266018718502" id="node_03x06" type="right_before_left" weight_num="2.0" weight_sum="0.532037437005" x="300.00" y="600.00" />
    <node avg_slowdown_ratio="0.242980561555" id="node_03x07" type="right_before_left" weight_num="2.0" weight_sum="0.48596112311" x="300.00" y="700.00" />
    <node avg_slowdown_ratio="0.240460763139" id="node_03x08" type="right_before_left" weight_num="3.0" weight_sum="0.721382289417" x="300.00" y="800.00" />
    <node avg_slowdown_ratio="0.237820974322" id="node_03x09" type="right_before_left" weight_num="3.0" weight_sum="0.713462922967" x="300.00" y="900.00" />
    <node avg_slowdown_ratio="0.267818574515" id="node_03x10" type="right_before_left" weight_num="4.0" weight_sum="1.07127429806" x="300.00" y="1000.00" />
    <node avg_slowdown_ratio="0.14686825054" id="node_03x11" type="right_before_left" weight_num="1.0" weight_sum="0.14686825054" x="300.00" y="1100.00" />
    <node avg_slowdown_ratio="0.0799136069114" id="node_03x12" type="right_before_left" weight_num="1.0" weight_sum="0.0799136069114" x="300.00" y="1200.00" />
    <node avg_slowdown_ratio="0.0885529157667" id="node_03x13" type="right_before_left" weight_num="1.0" weight_sum="0.0885529157667" x="300.00" y="1300.00" />
    <node avg_slowdown_ratio="0.252159827215" id="node_03x14" type="right_before_left" weight_num="4.0" weight_sum="1.00863930886" x="300.00" y="1400.00" />
    <node avg_slowdown_ratio="0.261099112071" id="node_03x15" type="right_before_left" weight_num="3.0" weight_sum="0.783297336213" x="300.00" y="1500.00" />
    <node avg_slowdown_ratio="0.240820734341" id="node_03x16" type="right_before_left" weight_num="2.0" weight_sum="0.481641468682" x="300.00" y="1600.00" />
    <node avg_slowdown_ratio="0.207343412527" id="node_03x17" type="right_before_left" weight_num="1.0" weight_sum="0.207343412527" x="300.00" y="1700.00" />
    <node avg_slowdown_ratio="0.237940964723" id="node_03x18" type="right_before_left" weight_num="2.0" weight_sum="0.475881929445" x="300.00" y="1800.00" />
    <node avg_slowdown_ratio="0.289176865851" id="node_03x19" type="right_before_left" weight_num="3.0" weight_sum="0.867530597552" x="300.00" y="1900.00" />
    <node avg_slowdown_ratio="0.185025197984" id="node_03x20" type="right_before_left" weight_num="1.0" weight_sum="0.185025197984" x="300.00" y="2000.00" />
    <node avg_slowdown_ratio="0.206623470122" id="node_04x01" type="right_before_left" weight_num="1.0" weight_sum="0.206623470122" x="400.00" y="100.00" />
    <node avg_slowdown_ratio="0.2343412527" id="node_04x02" type="right_before_left" weight_num="2.0" weight_sum="0.4686825054" x="400.00" y="200.00" />
    <node avg_slowdown_ratio="0.237580993521" id="node_04x03" type="right_before_left" weight_num="3.0" weight_sum="0.712742980562" x="400.00" y="300.00" />
    <node avg_slowdown_ratio="0.263858891288" id="node_04x04" type="right_before_left" weight_num="2.0" weight_sum="0.527717782577" x="400.00" y="400.00" />
    <node avg_slowdown_ratio="0.231101511879" id="node_04x05" type="right_before_left" weight_num="3.0" weight_sum="0.693304535638" x="400.00" y="500.00" />
    <node avg_slowdown_ratio="0.287257019439" id="node_04x08" type="right_before_left" weight_num="3.0" weight_sum="0.861771058316" x="400.00" y="800.00" />
    <node avg_slowdown_ratio="0.271418286537" id="node_04x09" type="right_before_left" weight_num="2.0" weight_sum="0.542836573074" x="400.00" y="900.00" />
    <node avg_slowdown_ratio="0.242440604752" id="node_04x10" type="right_before_left" weight_num="4.0" weight_sum="0.969762419006" x="400.00" y="1000.00" />
    <node avg_slowdown_ratio="0.24694024478" id="node_04x11" type="right_before_left" weight_num="3.0" weight_sum="0.740820734341" x="400.00" y="1100.00" />
    <node avg_slowdown_ratio="0.286177105832" id="node_04x12" type="right_before_left" weight_num="2.0" weight_sum="0.572354211663" x="400.00" y="1200.00" />
    <node avg_slowdown_ratio="0.20158387329" id="node_04x13" type="right_before_left" weight_num="1.0" weight_sum="0.20158387329" x="400.00" y="1300.00" />
    <node avg_slowdown_ratio="0.245860331174" id="node_04x14" type="right_before_left" weight_num="2.0" weight_sum="0.491720662347" x="400.00" y="1400.00" />
    <node avg_slowdown_ratio="0.238120950324" id="node_04x15" type="right_before_left" weight_num="4.0" weight_sum="0.952483801296" x="400.00" y="1500.00" />
    <node avg_slowdown_ratio="0.262059035277" id="node_04x16" type="right_before_left" weight_num="3.0" weight_sum="0.786177105832" x="400.00" y="1600.00" />
    <node avg_slowdown_ratio="0.150467962563" id="node_04x17" type="right_before_left" weight_num="1.0" weight_sum="0.150467962563" x="400.00" y="1700.00" />
    <node avg_slowdown_ratio="0.22498200144" id="node_04x18" type="right_before_left" weight_num="2.0" weight_sum="0.44996400288" x="400.00" y="1800.00" />
    <node avg_slowdown_ratio="0.26727861771" id="node_04x19" type="right_before_left" weight_num="4.0" weight_sum="1.06911447084" x="400.00" y="1900.00" />
    <node avg_slowdown_ratio="0.233621310295" id="node_04x20" type="right_before_left" weight_num="2.0" weight_sum="0.46724262059" x="400.00" y="2000.00" />
    <node avg_slowdown_ratio="0.19222462203" id="node_05x00" type="right_before_left" weight_num="1.0" weight_sum="0.19222462203" x="500.00" y="0.00" />
    <node avg_slowdown_ratio="0.267818574514" id="node_05x01" type="right_before_left" weight_num="2.0" weight_sum="0.535637149028" x="500.00" y="100.00" />
    <node avg_slowdown_ratio="0.220662347013" id="node_05x03" type="right_before_left" weight_num="2.0" weight_sum="0.441324694025" x="500.00" y="300.00" />
    <node avg_slowdown_ratio="0.236141108711" id="node_05x04" type="right_before_left" weight_num="3.0" weight_sum="0.708423326134" x="500.00" y="400.00" />
    <node avg_slowdown_ratio="0.255819534437" id="node_05x05" type="right_before_left" weight_num="3.0" weight_sum="0.767458603311" x="500.00" y="500.00" />
    <node avg_slowdown_ratio="0.131749460043" id="node_05x06" type="right_before_left" weight_num="1.0" weight_sum="0.131749460043" x="500.00" y="600.00" />
    <node avg_slowdown_ratio="0.272138228942" id="node_05x07" type="right_before_left" weight_num="2.0" weight_sum="0.544276457883" x="500.00" y="700.00" />
    <node avg_slowdown_ratio="0.272498200145" id="node_05x08" type="right_before_left" weight_num="4.0" weight_sum="1.08999280058" x="500.00" y="800.00" />
    <node avg_slowdown_ratio="0.264938804896" id="node_05x09" type="right_before_left" weight_num="3.0" weight_sum="0.794816414687" x="500.00" y="900.00" />
    <node avg_slowdown_ratio="0.253899688025" id="node_05x10" type="right_before_left" weight_num="3.0" weight_sum="0.761699064075" x="500.00" y="1000.00" />
    <node avg_slowdown_ratio="0.243580513559" id="node_05x11" type="right_before_left" weight_num="3.0" weight_sum="0.730741540677" x="500.00" y="1100.00" />
    <node avg_slowdown_ratio="0.243340532757" id="node_05x12" type="right_before_left" weight_num="3.0" weight_sum="0.730021598272" x="500.00" y="1200.00" />
    <node avg_slowdown_ratio="0.227861771058" id="node_05x13" type="right_before_left" weight_num="2.0" weight_sum="0.455723542116" x="500.00" y="1300.00" />
    <node avg_slowdown_ratio="0.294696424286" id="node_05x14" type="right_before_left" weight_num="3.0" weight_sum="0.884089272858" x="500.00" y="1400.00" />
    <node avg_slowdown_ratio="0.266138708903" id="node_05x15" type="right_before_left" weight_num="3.0" weight_sum="0.79841612671" x="500.00" y="1500.00" />
    <node avg_slowdown_ratio="0.249100071994" id="node_05x16" type="right_before_left" weight_num="3.0" weight_sum="0.747300215983" x="500.00" y="1600.00" />
    <node avg_slowdown_ratio="0.285097192225" id="node_05x17" type="right_before_left" weight_num="4.0" weight_sum="1.1403887689" x="500.00" y="1700.00" />
    <node avg_slowdown_ratio="0.271058315335" id="node_05x18" type="right_before_left" weight_num="4.0" weight_sum="1.08423326134" x="500.00" y="1800.00" />
    <node avg_slowdown_ratio="0.276457883369" id="node_05x19" type="right_before_left" weight_num="3.0" weight_sum="0.829373650108" x="500.00" y="1900.00" />
    <node avg_slowdown_ratio="0.291216702664" id="node_05x20" type="right_before_left" weight_num="2.0" weight_sum="0.582433405328" x="500.00" y="2000.00" />
    <node avg_slowdown_ratio="0.277177825773" id="node_06x00" type="right_before_left" weight_num="2.0" weight_sum="0.554355651547" x="600.00" y="0.00" />
    <node avg_slowdown_ratio="0.231101511879" id="node_06x01" type="right_before_left" weight_num="3.0" weight_sum="0.693304535637" x="600.00" y="100.00" />
    <node avg_slowdown_ratio="0.237940964723" id="node_06x02" type="right_before_left" weight_num="2.0" weight_sum="0.475881929446" x="600.00" y="200.00" />
    <node avg_slowdown_ratio="0.254379649628" id="node_06x03" type="right_before_left" weight_num="3.0" weight_sum="0.763138948885" x="600.00" y="300.00" />
    <node avg_slowdown_ratio="0.296616270698" id="node_06x04" type="right_before_left" weight_num="3.0" weight_sum="0.889848812095" x="600.00" y="400.00" />
    <node avg_slowdown_ratio="0.291336693065" id="node_06x05" type="right_before_left" weight_num="3.0" weight_sum="0.874010079194" x="600.00" y="500.00" />
    <node avg_slowdown_ratio="0.402627789778" id="node_06x06" type="right_before_left" weight_num="4.0" weight_sum="1.61051115911" x="600.00" y="600.00" />
    <node avg_slowdown_ratio="0.336033117353" id="node_06x07" type="right_before_left" weight_num="4.0" weight_sum="1.34413246941" x="600.00" y="700.00" />
    <node avg_slowdown_ratio="0.465082793375" id="node_06x08" type="right_before_left" weight_num="4.0" weight_sum="1.8603311735" x="600.00" y="800.00" />
    <node avg_slowdown_ratio="0.505639548837" id="node_06x09" type="right_before_left" weight_num="3.0" weight_sum="1.51691864651" x="600.00" y="900.00" />
    <node avg_slowdown_ratio="0.533717302617" id="node_06x10" type="right_before_left" weight_num="3.0" weight_sum="1.60115190785" x="600.00" y="1000.00" />
    <node avg_slowdown_ratio="0.357091432687" id="node_06x11" type="right_before_left" weight_num="3.0" weight_sum="1.07127429806" x="600.00" y="1100.00" />
    <node avg_slowdown_ratio="0.245740340773" id="node_06x12" type="right_before_left" weight_num="3.0" weight_sum="0.737221022319" x="600.00" y="1200.00" />
    <node avg_slowdown_ratio="0.242860571154" id="node_06x13" type="right_before_left" weight_num="3.0" weight_sum="0.728581713463" x="600.00" y="1300.00" />
    <node avg_slowdown_ratio="0.221382289417" id="node_06x14" type="right_before_left" weight_num="2.0" weight_sum="0.442764578833" x="600.00" y="1400.00" />
    <node avg_slowdown_ratio="0.253419726422" id="node_06x15" type="right_before_left" weight_num="2.0" weight_sum="0.506839452844" x="600.00" y="1500.00" />
    <node avg_slowdown_ratio="0.187904967603" id="node_06x16" type="right_before_left" weight_num="1.0" weight_sum="0.187904967603" x="600.00" y="1600.00" />
    <node avg_slowdown_ratio="0.269978401728" id="node_06x17" type="right_before_left" weight_num="3.0" weight_sum="0.809935205184" x="600.00" y="1700.00" />
    <node avg_slowdown_ratio="0.248860091193" id="node_06x18" type="right_before_left" weight_num="3.0" weight_sum="0.746580273579" x="600.00" y="1800.00" />
    <node avg_slowdown_ratio="0.24532037437" id="node_06x19" type="right_before_left" weight_num="4.0" weight_sum="0.98128149748" x="600.00" y="1900.00" />
    <node avg_slowdown_ratio="0.233741300696" id="node_06x20" type="right_before_left" weight_num="3.0" weight_sum="0.701223902087" x="600.00" y="2000.00" />
    <node avg_slowdown_ratio="0.213822894169" id="node_07x00" type="right_before_left" weight_num="2.0" weight_sum="0.427645788337" x="700.00" y="0.00" />
    <node avg_slowdown_ratio="0.245740340773" id="node_07x01" type="right_before_left" weight_num="3.0" weight_sum="0.737221022319" x="700.00" y="100.00" />
    <node avg_slowdown_ratio="0.21562275018" id="node_07x02" type="right_before_left" weight_num="2.0" weight_sum="0.43124550036" x="700.00" y="200.00" />
    <node avg_slowdown_ratio="0.28923686105" id="node_07x03" type="right_before_left" weight_num="4.0" weight_sum="1.1569474442" x="700.00" y="300.00" />
    <node avg_slowdown_ratio="0.36261099112" id="node_07x04" type="right_before_left" weight_num="3.0" weight_sum="1.08783297336" x="700.00" y="400.00" />
    <node avg_slowdown_ratio="0.303575713943" id="node_07x05" type="right_before_left" weight_num="3.0" weight_sum="0.910727141829" x="700.00" y="500.00" />
    <node avg_slowdown_ratio="0.268538516919" id="node_07x06" type="right_before_left" weight_num="3.0" weight_sum="0.805615550756" x="700.00" y="600.00" />
    <node avg_slowdown_ratio="0.259539236861" id="node_07x07" type="right_before_left" weight_num="2.0" weight_sum="0.519078473723" x="700.00" y="700.00" />
    <node avg_slowdown_ratio="0.251259899208" id="node_07x08" type="right_before_left" weight_num="2.0" weight_sum="0.502519798416" x="700.00" y="800.00" />
    <node avg_slowdown_ratio="0.237940964723" id="node_07x09" type="right_before_left" weight_num="2.0" weight_sum="0.475881929446" x="700.00" y="900.00" />
    <node avg_slowdown_ratio="0.582613390927" id="node_07x10" type="right_before_left" weight_num="4.0" weight_sum="2.33045356371" x="700.00" y="1000.00" />
    <node avg_slowdown_ratio="0.282037437005" id="node_07x11" type="right_before_left" weight_num="4.0" weight_sum="1.12814974802" x="700.00" y="1100.00" />
    <node avg_slowdown_ratio="0.309095272378" id="node_07x12" type="right_before_left" weight_num="3.0" weight_sum="0.927285817135" x="700.00" y="1200.00" />
    <node avg_slowdown_ratio="0.228941684665" id="node_07x13" type="right_before_left" weight_num="2.0" weight_sum="0.457883369331" x="700.00" y="1300.00" />
    <node avg_slowdown_ratio="0.262299016079" id="node_07x15" type="right_before_left" weight_num="3.0" weight_sum="0.786897048236" x="700.00" y="1500.00" />
    <node avg_slowdown_ratio="0.215982721382" id="node_07x16" type="right_before_left" weight_num="2.0" weight_sum="0.431965442765" x="700.00" y="1600.00" />
    <node avg_slowdown_ratio="0.244540436765" id="node_07x17" type="right_before_left" weight_num="3.0" weight_sum="0.733621310295" x="700.00" y="1700.00" />
    <node avg_slowdown_ratio="0.211663066955" id="node_07x18" type="right_before_left" weight_num="1.0" weight_sum="0.211663066955" x="700.00" y="1800.00" />
    <node avg_slowdown_ratio="0.245140388769" id="node_07x19" type="right_before_left" weight_num="2.0" weight_sum="0.490280777538" x="700.00" y="1900.00" />
    <node avg_slowdown_ratio="0.257259419247" id="node_07x20" type="right_before_left" weight_num="3.0" weight_sum="0.77177825774" x="700.00" y="2000.00" />
    <node avg_slowdown_ratio="0.174226061915" id="node_08x00" type="right_before_left" weight_num="1.0" weight_sum="0.174226061915" x="800.00" y="0.00" />
    <node avg_slowdown_ratio="0.23902087833" id="node_08x01" type="right_before_left" weight_num="3.0" weight_sum="0.717062634989" x="800.00" y="100.00" />
    <node avg_slowdown_ratio="0.236141108711" id="node_08x02" type="right_before_left" weight_num="3.0" weight_sum="0.708423326134" x="800.00" y="200.00" />
    <node avg_slowdown_ratio="0.244540436765" id="node_08x03" type="right_before_left" weight_num="3.0" weight_sum="0.733621310295" x="800.00" y="300.00" />
    <node avg_slowdown_ratio="0.107991360691" id="node_08x04" type="right_before_left" weight_num="1.0" weight_sum="0.107991360691" x="800.00" y="400.00" />
    <node avg_slowdown_ratio="0.13750899928" id="node_08x05" type="right_before_left" weight_num="1.0" weight_sum="0.13750899928" x="800.00" y="500.00" />
    <node avg_slowdown_ratio="0.112311015119" id="node_08x06" type="right_before_left" weight_num="1.0" weight_sum="0.112311015119" x="800.00" y="600.00" />
    <node avg_slowdown_ratio="0.197264218862" id="node_08x07" type="right_before_left" weight_num="1.0" weight_sum="0.197264218862" x="800.00" y="700.00" />
    <node avg_slowdown_ratio="0.239380849532" id="node_08x08" type="right_before_left" weight_num="2.0" weight_sum="0.478761699064" x="800.00" y="800.00" />
    <node avg_slowdown_ratio="0.2343412527" id="node_08x09" type="right_before_left" weight_num="2.0" weight_sum="0.468682505399" x="800.00" y="900.00" />
    <node avg_slowdown_ratio="0.316774658027" id="node_08x10" type="right_before_left" weight_num="3.0" weight_sum="0.950323974082" x="800.00" y="1000.00" />
    <node avg_slowdown_ratio="0.254859611231" id="node_08x11" type="right_before_left" weight_num="2.0" weight_sum="0.509719222462" x="800.00" y="1100.00" />
    <node avg_slowdown_ratio="0.267098632109" id="node_08x12" type="right_before_left" weight_num="3.0" weight_sum="0.801295896328" x="800.00" y="1200.00" />
    <node avg_slowdown_ratio="0.307655387569" id="node_08x13" type="right_before_left" weight_num="3.0" weight_sum="0.922966162708" x="800.00" y="1300.00" />
    <node avg_slowdown_ratio="0.259899208063" id="node_08x14" type="right_before_left" weight_num="3.0" weight_sum="0.77969762419" x="800.00" y="1400.00" />
    <node avg_slowdown_ratio="0.307655387569" id="node_08x15" type="right_before_left" weight_num="3.0" weight_sum="0.922966162707" x="800.00" y="1500.00" />
    <node avg_slowdown_ratio="0.2343412527" id="node_08x16" type="right_before_left" weight_num="2.0" weight_sum="0.468682505399" x="800.00" y="1600.00" />
    <node avg_slowdown_ratio="0.257499400048" id="node_08x17" type="right_before_left" weight_num="3.0" weight_sum="0.772498200144" x="800.00" y="1700.00" />
    <node avg_slowdown_ratio="0.261339092873" id="node_08x18" type="right_before_left" weight_num="2.0" weight_sum="0.522678185745" x="800.00" y="1800.00" />
    <node avg_slowdown_ratio="0.22354211663" id="node_08x20" type="right_before_left" weight_num="2.0" weight_sum="0.447084233261" x="800.00" y="2000.00" />
    <node avg_slowdown_ratio="0.256659467243" id="node_09x00" type="right_before_left" weight_num="2.0" weight_sum="0.513318934486" x="900.00" y="0.00" />
    <node avg_slowdown_ratio="0.269618430525" id="node_09x01" type="right_before_left" weight_num="4.0" weight_sum="1.0784737221" x="900.00" y="100.00" />
    <node avg_slowdown_ratio="0.28437724982" id="node_09x02" type="right_before_left" weight_num="3.0" weight_sum="0.85313174946" x="900.00" y="200.00" />
    <node avg_slowdown_ratio="0.17494600432" id="node_09x03" type="right_before_left" weight_num="1.0" weight_sum="0.17494600432" x="900.00" y="300.00" />
    <node avg_slowdown_ratio="0.3124550036" id="node_09x04" type="right_before_left" weight_num="3.0" weight_sum="0.937365010799" x="900.00" y="400.00" />
    <node avg_slowdown_ratio="0.238660907127" id="node_09x05" type="right_before_left" weight_num="2.0" weight_sum="0.477321814255" x="900.00" y="500.00" />