<?xml version='1.0' encoding='UTF-8'?>
<edges xmlns:xsi="http://www.w3.org/2001/XMLSchema-instance" version="0.27" xsi:noNamespaceSchemaLocation="http://sumo.dlr.de/xsd/edges_file.xsd"><edge disallow="tram rail_urban rail rail_electric ship" dump_speed="0.01" from="node_219" id="xedge_10x18" len="100.0" numLanes="1" priority="5" slowdown="13.88" slowdown_ratio="0.999280057595" speed="13.89" to="node_220" type="highway.undefined" />
    <edge disallow="tram rail_urban rail rail_electric ship" dump_speed="0.01" from="node_221" id="xedge_10x21" len="100.0" numLanes="1" priority="5" slowdown="13.88" slowdown_ratio="0.999280057595" speed="13.89" to="node_220" type="highway.undefined" />
    <edge disallow="tram rail_urban rail rail_electric ship" dump_speed="0.01" from="node_199" id="yedge_10x18" len="100.0" numLanes="1" priority="5" slowdown="13.88" slowdown_ratio="0.999280057595" speed="13.89" to="node_220" type="highway.undefined" />
    <edge disallow="tram rail_urban rail rail_electric ship" dump_speed="0.01" from="node_241" id="yedge_10x21" len="100.0" numLanes="1" priority="5" slowdown="13.88" slowdown_ratio="0.999280057595" speed="13.89" to="node_220" type="highway.undefined" />
    <edge disallow="tram rail_urban rail rail_electric ship" dump_speed="13.89" from="node_0" id="xedge_00x00" len="100.0" numLanes="1" priority="5" slowdown="0.0" slowdown_ratio="0.0" speed="13.89" to="node_1" type="highway.undefined" />
    <edge disallow="tram rail_urban rail rail_electric ship" dump_speed="13.89" from="node_1" id="xedge_00x01" len="100.0" numLanes="1" priority="5" slowdown="0.0" slowdown_ratio="0.0" speed="13.89" to="node_0" type="highway.undefined" />
    <edge disallow="tram rail_urban rail rail_electric ship" dump_speed="13.89" from="node_1" id="xedge_00x02" len="100.0" numLanes="1" priority="5" slowdown="0.0" slowdown_ratio="0.0" speed="13.89" to="node_2" type="highway.undefined" />
    <edge disallow="tram rail_urban rail rail_electric ship" dump_speed="13.89" from="node_2" id="xedge_00x03" len="100.0" numLanes="1" priority="5" slowdown="0.0" slowdown_ratio="0.0" speed="13.89" to="node_1" type="highway.undefined" />
    <edge disallow="tram rail_urban rail rail_electric ship" dump_speed="13.89" from="node_2" id="xedge_00x04" len="100.0" numLanes="1" priority="5" slowdown="0.0" slowdown_ratio="0.0" speed="13.89" to="node_3" type="highway.undefined" />
    <edge disallow="tram rail_urban rail rail_electric ship" dump_speed="13.89" from="node_3" id="xedge_00x05" len="100.0" numLanes="1" priority="5" slowdown="0.0" slowdown_ratio="0.0" speed="13.89" to="node_2" type="highway.undefined" />
    <edge disallow="tram rail_urban rail rail_electric ship" dump_speed="13.89" from="node_3" id="xedge_00x06" len="100.0" numLanes="1" priority="5" slowdown="0.0" slowdown_ratio="0.0" speed="13.89" to="node_4" type="highway.undefined" />
    <edge disallow="tram rail_urban rail rail_electric ship" dump_speed="13.89" from="node_4" id="xedge_00x07" len="100.0" numLanes="1" priority="5" slowdown="0.0" slowdown_ratio="0.0" speed="13.89" to="node_3" type="highway.undefined" />
    <edge disallow="tram rail_urban rail rail_electric ship" dump_speed="13.89" from="node_4" id="xedge_00x08" len="100.0" numLanes="1" priority="5" slowdown="0.0" slowdown_ratio="0.0" speed="13.89" to="node_5" type="highway.undefined" />
    <edge disallow="tram rail_urban rail rail_electric ship" dump_speed="13.89" from="node_5" id="xedge_00x09" len="100.0" numLanes="1" priority="5" slowdown="0.0" slowdown_ratio="0.0" speed="13.89" to="node_4" type="highway.undefined" />
    <edge disallow="tram rail_urban rail rail_electric ship" dump_speed="13.89" from="node_5" id="xedge_00x10" len="100.0" numLanes="1" priority="5" slowdown="0.0" slowdown_ratio="0.0" speed="13.89" to="node_6" type="highway.undefined" />
    <edge disallow="tram rail_urban rail rail_electric ship" dump_speed="13.89" from="node_6" id="xedge_00x11" len="100.0" numLanes="1" priority="5" slowdown="0.0" slowdown_ratio="0.0" speed="13.89" to="node_5" type="highway.undefined" />
    <edge disallow="tram rail_urban rail rail_electric ship" dump_speed="13.89" from="node_6" id="xedge_00x12" len="100.0" numLanes="1" priority="5" slowdown="0.0" slowdown_ratio="0.0" speed="13.89" to="node_7" type="highway.undefined" />
    <edge disallow="tram rail_urban rail rail_electric ship" dump_speed="13.89" from="node_7" id="xedge_00x13" len="100.0" numLanes="1" priority="5" slowdown="0.0" slowdown_ratio="0.0" speed="13.89" to="node_6" type="highway.undefined" />
    <edge disallow="tram rail_urban rail rail_electric ship" dump_speed="13.89" from="node_7" id="xedge_00x14" len="100.0" numLanes="1" priority="5" slowdown="0.0" slowdown_ratio="0.0" speed="13.89" to="node_8" type="highway.undefined" />
    <edge disallow="tram rail_urban rail rail_electric ship" dump_speed="13.89" from="node_8" id="xedge_00x15" len="100.0" numLanes="1" priority="5" slowdown="0.0" slowdown_ratio="0.0" speed="13.89" to="node_7" type="highway.undefined" />
    <edge disallow="tram rail_urban rail rail_electric ship" dump_speed="13.89" from="node_8" id="xedge_00x16" len="100.0" numLanes="1" priority="5" slowdown="0.0" slowdown_ratio="0.0" speed="13.89" to="node_9" type="highway.undefined" />
    <edge disallow="tram rail_urban rail rail_electric ship" dump_speed="13.89" from="node_9" id="xedge_00x17" len="100.0" numLanes="1" priority="5" slowdown="0.0" slowdown_ratio="0.0" speed="13.89" to="node_8" type="highway.undefined" />
    <edge disallow="tram rail_urban rail rail_electric ship" dump_speed="13.89" from="node_9" id="xedge_00x18" len="100.0" numLanes="1" priority="5" slowdown="0.0" slowdown_ratio="0.0" speed="13.89" to="node_10" type="highway.undefined" />
    <edge disallow="tram rail_urban rail rail_electric ship" dump_speed="13.89" from="node_10" id="xedge_00x19" len="100.0" numLanes="1" priority="5" slowdown="0.0" slowdown_ratio="0.0" speed="13.89" to="node_9" type="highway.undefined" />
    <edge disallow="tram rail_urban rail rail_electric ship" dump_speed="13.89" from="node_10" id="xedge_00x20" len="100.0" numLanes="1" priority="5" slowdown="0.0" slowdown_ratio="0.0" speed="13.89" to="node_11" type="highway.undefined" />
    <edge disallow="tram rail_urban rail rail_electric ship" dump_speed="13.89" from="node_11" id="xedge_00x21" len="100.0" numLanes="1" priority="5" slowdown="0.0" slowdown_ratio="0.0" speed="13.89" to="node_10" type="highway.undefined" />
    <edge disallow="tram rail_urban rail rail_electric ship" dump_speed="13.89" from="node_11" id="xedge_00x22" len="100.0" numLanes="1" priority="5" slowdown="0.0" slowdown_ratio="0.0" speed="13.89" to="node_12" type="highway.undefined" />
    <edge disallow="tram rail_urban rail rail_electric ship" dump_speed="13.89" from="node_12" id="xedge_00x23" len="100.0" numLanes="1" priority="5" slowdown="0.0" slowdown_ratio="0.0" speed="13.89" to="node_11" type="highway.undefined" />
    <edge disallow="tram rail_urban rail rail_electric ship" dump_speed="13.89" from="node_12" id="xedge_00x24" len="100.0" numLanes="1" priority="5" slowdown="0.0" slowdown_ratio="0.0" speed="13.89" to="node_13" type="highway.undefined" />
    <edge disallow="tram rail_urban rail rail_electric ship" dump_speed="13.89" from="node_13" id="xedge_00x25" len="100.0" numLanes="1" priority="5" slowdown="0.0" slowdown_ratio="0.0" speed="13.89" to="node_12" type="highway.undefined" />
    <edge disallow="tram rail_urban rail rail_electric ship" dump_speed="13.89" from="node_13" id="xedge_00x26" len="100.0" numLanes="1" priority="5" slowdown="0.0" slowdown_ratio="0.0" speed="13.89" to="node_14" type="highway.undefined" />
    <edge disallow="tram rail_urban rail rail_electric ship" dump_speed="13.89" from="node_14" id="xedge_00x27" len="100.0" numLanes="1" priority="5" slowdown="0.0" slowdown_ratio="0.0" speed="13.89" to="node_13" type="highway.undefined" />
    <edge disallow="tram rail_urban rail rail_electric ship" dump_speed="13.89" from="node_14" id="xedge_00x28" len="100.0" numLanes="1" priority="5" slowdown="0.0" slowdown_ratio="0.0" speed="13.89" to="node_15" type="highway.undefined" />
    <edge disallow="tram rail_urban rail rail_electric ship" dump_speed="13.89" from="node_15" id="xedge_00x29" len="100.0" numLanes="1" priority="5" slowdown="0.0" slowdown_ratio="0.0" speed="13.89" to="node_14" type="highway.undefined" />
    <edge disallow="tram rail_urban rail rail_electric ship" dump_speed="13.89" from="node_15" id="xedge_00x30" len="100.0" numLanes="1" priority="5" slowdown="0.0" slowdown_ratio="0.0" speed="13.89" to="node_16" type="highway.undefined" />
    <edge disallow="tram rail_urban rail rail_electric ship" dump_speed="13.89" from="node_16" id="xedge_00x31" len="100.0" numLanes="1" priority="5" slowdown="0.0" slowdown_ratio="0.0" speed="13.89" to="node_15" type="highway.undefined" />
    <edge disallow="tram rail_urban rail rail_electric ship" dump_speed="13.89" from="node_16" id="xedge_00x32" len="100.0" numLanes="1" priority="5" slowdown="0.0" slowdown_ratio="0.0" speed="13.89" to="node_17" type="highway.undefined" />
    <edge disallow="tram rail_urban rail rail_electric ship" dump_speed="13.89" from="node_17" id="xedge_00x33" len="100.0" numLanes="1" priority="5" slowdown="0.0" slowdown_ratio="0.0" speed="13.89" to="node_16" type="highway.undefined" />
    <edge disallow="tram rail_urban rail rail_electric ship" dump_speed="13.89" from="node_17" id="xedge_00x34" len="100.0" numLanes="1" priority="5" slowdown="0.0" slowdown_ratio="0.0" speed="13.89" to="node_18" type="highway.undefined" />
    <edge disallow="tram rail_urban rail rail_electric ship" dump_speed="13.89" from="node_18" id="xedge_00x35" len="100.0" numLanes="1" priority="5" slowdown="0.0" slowdown_ratio="0.0" speed="13.89" to="node_17" type="highway.undefined" />
    <edge disallow="tram rail_urban rail rail_electric ship" dump_speed="13.89" from="node_18" id="xedge_00x36" len="100.0" numLanes="1" priority="5" slowdown="0.0" slowdown_ratio="0.0" speed="13.89" to="node_19" type="highway.undefined" />
    <edge disallow="tram rail_urban rail rail_electric ship" dump_speed="13.89" from="node_19" id="xedge_00x37" len="100.0" numLanes="1" priority="5" slowdown="0.0" slowdown_ratio="0.0" speed="13.89" to="node_18" type="highway.undefined" />
    <edge disallow="tram rail_urban rail rail_electric ship" dump_speed="13.89" from="node_19" id="xedge_00x38" len="100.0" numLanes="1" priority="5" slowdown="0.0" slowdown_ratio="0.0" speed="13.89" to="node_20" type="highway.undefined" />
    <edge disallow="tram rail_urban rail rail_electric ship" dump_speed="13.89" from="node_20" id="xedge_00x39" len="100.0" numLanes="1" priority="5" slowdown="0.0" slowdown_ratio="0.0" speed="13.89" to="node_19" type="highway.undefined" />
    <edge disallow="tram rail_urban rail rail_electric ship" dump_speed="13.89" from="node_21" id="xedge_01x00" len="100.0" numLanes="1" priority="5" slowdown="0.0" slowdown_ratio="0.0" speed="13.89" to="node_22" type="highway.undefined" />
    <edge disallow="tram rail_urban rail rail_electric ship" dump_speed="13.89" from="node_22" id="xedge_01x01" len="100.0" numLanes="1" priority="5" slowdown="0.0" slowdown_ratio="0.0" speed="13.89" to="node_21" type="highway.undefined" />
    <edge disallow="tram rail_urban rail rail_electric ship" dump_speed="13.89" from="node_22" id="xedge_01x02" len="100.0" numLanes="1" priority="5" slowdown="0.0" slowdown_ratio="0.0" speed="13.89" to="node_23" type="highway.undefined" />
    <edge disallow="tram rail_urban rail rail_electric ship" dump_speed="13.89" from="node_23" id="xedge_01x03" len="100.0" numLanes="1" priority="5" slowdown="0.0" slowdown_ratio="0.0" speed="13.89" to="node_22" type="highway.undefined" />
    <edge disallow="tram rail_urban rail rail_electric ship" dump_speed="13.89" from="node_23" id="xedge_01x04" len="100.0" numLanes="1" priority="5" slowdown="0.0" slowdown_ratio="0.0" speed="13.89" to="node_24" type="highway.undefined" />
    <edge disallow="tram rail_urban rail rail_electric ship" dump_speed="13.89" from="node_24" id="xedge_01x05" len="100.0" numLanes="1" priority="5" slowdown="0.0" slowdown_ratio="0.0" speed="13.89" to="node_23" type="highway.undefined" />
    <edge disallow="tram rail_urban rail rail_electric ship" dump_speed="13.89" from="node_24" id="xedge_01x06" len="100.0" numLanes="1" priority="5" slowdown="0.0" slowdown_ratio="0.0" speed="13.89" to="node_25" type="highway.undefined" />
    <edge disallow="tram rail_urban rail rail_electric ship" dump_speed="13.89" from="node_25" id="xedge_01x07" len="100.0" numLanes="1" priority="5" slowdown="0.0" slowdown_ratio="0.0" speed="13.89" to="node_24" type="highway.undefined" />
    <edge disallow="tram rail_urban rail rail_electric ship" dump_speed="13.89" from="node_25" id="xedge_01x08" len="100.0" numLanes="1" priority="5" slowdown="0.0" slowdown_ratio="0.0" speed="13.89" to="node_26" type="highway.undefined" />
    <edge disallow="tram rail_urban rail rail_electric ship" dump_speed="13.89" from="node_26" id="xedge_01x09" len="100.0" numLanes="1" priority="5" slowdown="0.0" slowdown_ratio="0.0" speed="13.89" to="node_25" type="highway.undefined" />
    <edge disallow="tram rail_urban rail rail_electric ship" dump_speed="13.89" from="node_26" id="xedge_01x10" len="100.0" numLanes="1" priority="5" slowdown="0.0" slowdown_ratio="0.0" speed="13.89" to="node_27" type="highway.undefined" />
    <edge disallow="tram rail_urban rail rail_electric ship" dump_speed="13.89" from="node_27" id="xedge_01x11" len="100.0" numLanes="1" priority="5" slowdown="0.0" slowdown_ratio="0.0" speed="13.89" to="node_26" type="highway.undefined" />
    <edge disallow="tram rail_urban rail rail_electric ship" dump_speed="13.89" from="node_27" id="xedge_01x12" len="100.0" numLanes="1" priority="5" slowdown="0.0" slowdown_ratio="0.0" speed="13.89" to="node_28" type="highway.undefined" />
    <edge disallow="tram rail_urban rail rail_electric ship" dump_speed="13.89" from="node_28" id="xedge_01x13" len="100.0" numLanes="1" priority="5" slowdown="0.0" slowdown_ratio="0.0" speed="13.89" to="node_27" type="highway.undefined" />
    <edge disallow="tram rail_urban rail rail_electric ship" dump_speed="13.89" from="node_28" id="xedge_01x14" len="100.0" numLanes="1" priority="5" slowdown="0.0" slowdown_ratio="0.0" speed="13.89" to="node_29" type="highway.undefined" />
    <edge disallow="tram rail_urban rail rail_electric ship" dump_speed="13.89" from="node_29" id="xedge_01x15" len="100.0" numLanes="1" priority="5" slowdown="0.0" slowdown_ratio="0.0" speed="13.89" to="node_28" type="highway.undefined" />
    <edge disallow="tram rail_urban rail rail_electric ship" dump_speed="13.89" from="node_29" id="xedge_01x16" len="100.0" numLanes="1" priority="5" slowdown="0.0" slowdown_ratio="0.0" speed="13.89" to="node_30" type="highway.undefined" />
    <edge disallow="tram rail_urban rail rail_electric ship" dump_speed="13.89" from="node_30" id="xedge_01x17" len="100.0" numLanes="1" priority="5" slowdown="0.0" slowdown_ratio="0.0" speed="13.89" to="node_29" type="highway.undefined" />
    <edge disallow="tram rail_urban rail rail_electric ship" dump_speed="13.89" from="node_30" id="xedge_01x18" len="100.0" numLanes="1" priority="5" slowdown="0.0" slowdown_ratio="0.0" speed="13.89" to="node_31" type="highway.undefined" />
    <edge disallow="tram rail_urban rail rail_electric ship" dump_speed="13.89" from="node_31" id="xedge_01x19" len="100.0" numLanes="1" priority="5" slowdown="0.0" slowdown_ratio="0.0" speed="13.89" to="node_30" type="highway.undefined" />
    <edge disallow="tram rail_urban rail rail_electric ship" dump_speed="13.89" from="node_31" id="xedge_01x20" len="100.0" numLanes="1" priority="5" slowdown="0.0" slowdown_ratio="0.0" speed="13.89" to="node_32" type="highway.undefined" />
    <edge disallow="tram rail_urban rail rail_electric ship" dump_speed="13.89" from="node_32" id="xedge_01x21" len="100.0" numLanes="1" priority="5" slowdown="0.0" slowdown_ratio="0.0" speed="13.89" to="node_31" type="highway.undefined" />
    <edge disallow="tram rail_urban rail rail_electric ship" dump_speed="13.89" from="node_32" id="xedge_01x22" len="100.0" numLanes="1" priority="5" slowdown="0.0" slowdown_ratio="0.0" speed="13.89" to="node_33" type="highway.undefined" />
    <edge disallow="tram rail_urban rail rail_electric ship" dump_speed="13.89" from="node_33" id="xedge_01x23" len="100.0" numLanes="1" priority="5" slowdown="0.0" slowdown_ratio="0.0" speed="13.89" to="node_32" type="highway.undefined" />
    <edge disallow="tram rail_urban rail rail_electric ship" dump_speed="13.89" from="node_33" id="xedge_01x24" len="100.0" numLanes="1" priority="5" slowdown="0.0" slowdown_ratio="0.0" speed="13.89" to="node_34" type="highway.undefined" />
    <edge disallow="tram rail_urban rail rail_electric ship" dump_speed="13.89" from="node_34" id="xedge_01x25" len="100.0" numLanes="1" priority="5" slowdown="0.0" slowdown_ratio="0.0" speed="13.89" to="node_33" type="highway.undefined" />
    <edge disallow="tram rail_urban rail rail_electric ship" dump_speed="13.89" from="node_34" id="xedge_01x26" len="100.0" numLanes="1" priority="5" slowdown="0.0" slowdown_ratio="0.0" speed="13.89" to="node_35" type="highway.undefined" />
    <edge disallow="tram rail_urban rail rail_electric ship" dump_speed="13.89" from="node_35" id="xedge_01x27" len="100.0" numLanes="1" priority="5" slowdown="0.0" slowdown_ratio="0.0" speed="13.89" to="node_34" type="highway.undefined" />
    <edge disallow="tram rail_urban rail rail_electric ship" dump_speed="13.89" from="node_35" id="xedge_01x28" len="100.0" numLanes="1" priority="5" slowdown="0.0" slowdown_ratio="0.0" speed="13.89" to="node_36" type="highway.undefined" />
    <edge disallow="tram rail_urban rail rail_electric ship" dump_speed="13.89" from="node_36" id="xedge_01x29" len="100.0" numLanes="1" priority="5" slowdown="0.0" slowdown_ratio="0.0" speed="13.89" to="node_35" type="highway.undefined" />
    <edge disallow="tram rail_urban rail rail_electric ship" dump_speed="13.89" from="node_36" id="xedge_01x30" len="100.0" numLanes="1" priority="5" slowdown="0.0" slowdown_ratio="0.0" speed="13.89" to="node_37" type="highway.undefined" />
    <edge disallow="tram rail_urban rail rail_electric ship" dump_speed="13.89" from="node_37" id="xedge_01x31" len="100.0" numLanes="1" priority="5" slowdown="0.0" slowdown_ratio="0.0" speed="13.89" to="node_36" type="highway.undefined" />
    <edge disallow="tram rail_urban rail rail_electric ship" dump_speed="13.89" from="node_37" id="xedge_01x32" len="100.0" numLanes="1" priority="5" slowdown="0.0" slowdown_ratio="0.0" speed="13.89" to="node_38" type="highway.undefined" />
    <edge disallow="tram rail_urban rail rail_electric ship" dump_speed="13.89" from="node_38" id="xedge_01x33" len="100.0" numLanes="1" priority="5" slowdown="0.0" slowdown_ratio="0.0" speed="13.89" to="node_37" type="highway.undefined" />
    <edge disallow="tram rail_urban rail rail_electric ship" dump_speed="13.89" from="node_38" id="xedge_01x34" len="100.0" numLanes="1" priority="5" slowdown="0.0" slowdown_ratio="0.0" speed="13.89" to="node_39" type="highway.undefined" />
    <edge disallow="tram rail_urban rail rail_electric ship" dump_speed="13.89" from="node_39" id="xedge_01x35" len="100.0" numLanes="1" priority="5" slowdown="0.0" slowdown_ratio="0.0" speed="13.89" to="node_38" type="highway.undefined" />
    <edge disallow="tram rail_urban rail rail_electric ship" dump_speed="13.89" from="node_39" id="xedge_01x36" len="100.0" numLanes="1" priority="5" slowdown="0.0" slowdown_ratio="0.0" speed="13.89" to="node_40" type="highway.undefined" />
    <edge disallow="tram rail_urban rail rail_electric ship" dump_speed="13.89" from="node_40" id="xedge_01x37" len="100.0" numLanes="1" priority="5" slowdown="0.0" slowdown_ratio="0.0" speed="13.89" to="node_39" type="highway.undefined" />
    <edge disallow="tram rail_urban rail rail_electric ship" dump_speed="13.89" from="node_40" id="xedge_01x38" len="100.0" numLanes="1" priority="5" slowdown="0.0" slowdown_ratio="0.0" speed="13.89" to="node_41" type="highway.undefined" />
    <edge disallow="tram rail_urban rail rail_electric ship" dump_speed="13.89" from="node_41" id="xedge_01x39" len="100.0" numLanes="1" priority="5" slowdown="0.0" slowdown_ratio="0.0" speed="13.89" to="node_40" type="highway.undefined" />
    <edge disallow="tram rail_urban rail rail_electric ship" dump_speed="13.89" from="node_42" id="xedge_02x00" len="100.0" numLanes="1" priority="5" slowdown="0.0" slowdown_ratio="0.0" speed="13.89" to="node_43" type="highway.undefined" />
    <edge disallow="tram rail_urban rail rail_electric ship" dump_speed="13.89" from="node_43" id="xedge_02x01" len="100.0" numLanes="1" priority="5" slowdown="0.0" slowdown_ratio="0.0" speed="13.89" to="node_42" type="highway.undefined" />
    <edge disallow="tram rail_urban rail rail_electric ship" dump_speed="13.89" from="node_43" id="xedge_02x02" len="100.0" numLanes="1" priority="5" slowdown="0.0" slowdown_ratio="0.0" speed="13.89" to="node_44" type="highway.undefined" />
    <edge disallow="tram rail_urban rail rail_electric ship" dump_speed="13.89" from="node_44" id="xedge_02x03" len="100.0" numLanes="1" priority="5" slowdown="0.0" slowdown_ratio="0.0" speed="13.89" to="node_43" type="highway.undefined" />
    <edge disallow="tram rail_urban rail rail_electric ship" dump_speed="13.89" from="node_44" id="xedge_02x04" len="100.0" numLanes="1" priority="5" slowdown="0.0" slowdown_ratio="0.0" speed="13.89" to="node_45" type="highway.undefined" />
    <edge disallow="tram rail_urban rail rail_electric ship" dump_speed="13.89" from="node_45" id="xedge_02x05" len="100.0" numLanes="1" priority="5" slowdown="0.0" slowdown_ratio="0.0" speed="13.89" to="node_44" type="highway.undefined" />
    <edge disallow="tram rail_urban rail rail_electric ship" dump_speed="13.89" from="node_45" id="xedge_02x06" len="100.0" numLanes="1" priority="5" slowdown="0.0" slowdown_ratio="0.0" speed="13.89" to="node_46" type="highway.undefined" />
    <edge disallow="tram rail_urban rail rail_electric ship" dump_speed="13.89" from="node_46" id="xedge_02x07" len="100.0" numLanes="1" priority="5" slowdown="0.0" slowdown_ratio="0.0" speed="13.89" to="node_45" type="highway.undefined" />
    <edge disallow="tram rail_urban rail rail_electric ship" dump_speed="13.89" from="node_46" id="xedge_02x08" len="100.0" numLanes="1" priority="5" slowdown="0.0" slowdown_ratio="0.0" speed="13.89" to="node_47" type="highway.undefined" />
    <edge disallow="tram rail_urban rail rail_electric ship" dump_speed="13.89" from="node_47" id="xedge_02x09" len="100.0" numLanes="1" priority="5" slowdown="0.0" slowdown_ratio="0.0" speed="13.89" to="node_46" type="highway.undefined" />
    <edge disallow="tram rail_urban rail rail_electric ship" dump_speed="13.89" from="node_47" id="xedge_02x10" len="100.0" numLanes="1" priority="5" slowdown="0.0" slowdown_ratio="0.0" speed="13.89" to="node_48" type="highway.undefined" />
    <edge disallow="tram rail_urban rail rail_electric ship" dump_speed="13.89" from="node_48" id="xedge_02x11" len="100.0" numLanes="1" priority="5" slowdown="0.0" slowdown_ratio="0.0" speed="13.89" to="node_47" type="highway.undefined" />
    <edge disallow="tram rail_urban rail rail_electric ship" dump_speed="13.89" from="node_48" id="xedge_02x12" len="100.0" numLanes="1" priority="5" slowdown="0.0" slowdown_ratio="0.0" speed="13.89" to="node_49" type="highway.undefined" />
    <edge disallow="tram rail_urban rail rail_electric ship" dump_speed="13.89" from="node_49" id="xedge_02x13" len="100.0" numLanes="1" priority="5" slowdown="0.0" slowdown_ratio="0.0" speed="13.89" to="node_48" type="highway.undefined" />
    <edge disallow="tram rail_urban rail rail_electric ship" dump_speed="13.89" from="node_49" id="xedge_02x14" len="100.0" numLanes="1" priority="5" slowdown="0.0" slowdown_ratio="0.0" speed="13.89" to="node_50" type="highway.undefined" />
    <edge disallow="tram rail_urban rail rail_electric ship" dump_speed="13.89" from="node_50" id="xedge_02x15" len="100.0" numLanes="1" priority="5" slowdown="0.0" slowdown_ratio="0.0" speed="13.89" to="node_49" type="highway.undefined" />
    <edge disallow="tram rail_urban rail rail_electric ship" dump_speed="13.89" from="node_50" id="xedge_02x16" len="100.0" numLanes="1" priority="5" slowdown="0.0" slowdown_ratio="0.0" speed="13.89" to="node_51" type="highway.undefined" />
    <edge disallow="tram rail_urban rail rail_electric ship" dump_speed="13.89" from="node_51" id="xedge_02x17" len="100.0" numLanes="1" priority="5" slowdown="0.0" slowdown_ratio="0.0" speed="13.89" to="node_50" type="highway.undefined" />
    <edge disallow="tram rail_urban rail rail_electric ship" dump_speed="13.89" from="node_51" id="xedge_02x18" len="100.0" numLanes="1" priority="5" slowdown="0.0" slowdown_ratio="0.0" speed="13.89" to="node_52" type="highway.undefined" />
    <edge disallow="tram rail_urban rail rail_electric ship" dump_speed="13.89" from="node_52" id="xedge_02x19" len="100.0" numLanes="1" priority="5" slowdown="0.0" slowdown_ratio="0.0" speed="13.89" to="node_51" type="highway.undefined" />
    <edge disallow="tram rail_urban rail rail_electric ship" dump_speed="13.89" from="node_52" id="xedge_02x20" len="100.0" numLanes="1" priority="5" slowdown="0.0" slowdown_ratio="0.0" speed="13.89" to="node_53" type="highway.undefined" />
    <edge disallow="tram rail_urban rail rail_electric ship" dump_speed="13.89" from="node_53" id="xedge_02x21" len="100.0" numLanes="1" priority="5" slowdown="0.0" slowdown_ratio="0.0" speed="13.89" to="node_52" type="highway.undefined" />
    <edge disallow="tram rail_urban rail rail_electric ship" dump_speed="13.89" from="node_53" id="xedge_02x22" len="100.0" numLanes="1" priority="5" slowdown="0.0" slowdown_ratio="0.0" speed="13.89" to="node_54" type="highway.undefined" />
    <edge disallow="tram rail_urban rail rail_electric ship" dump_speed="13.89" from="node_54" id="xedge_02x23" len="100.0" numLanes="1" priority="5" slowdown="0.0" slowdown_ratio="0.0" speed="13.89" to="node_53" type="highway.undefined" />
    <edge disallow="tram rail_urban rail rail_electric ship" dump_speed="13.89" from="node_54" id="xedge_02x24" len="100.0" numLanes="1" priority="5" slowdown="0.0" slowdown_ratio="0.0" speed="13.89" to="node_55" type="highway.undefined" />
    <edge disallow="tram rail_urban rail rail_electric ship" dump_speed="13.89" from="node_55" id="xedge_02x25" len="100.0" numLanes="1" priority="5" slowdown="0.0" slowdown_ratio="0.0" speed="13.89" to="node_54" type="highway.undefined" />
    <edge disallow="tram rail_urban rail rail_electric ship" dump_speed="13.89" from="node_55" id="xedge_02x26" len="100.0" numLanes="1" priority="5" slowdown="0.0" slowdown_ratio="0.0" speed="13.89" to="node_56" type="highway.undefined" />
    <edge disallow="tram rail_urban rail rail_electric ship" dump_speed="13.89" from="node_56" id="xedge_02x27" len="100.0" numLanes="1" priority="5" slowdown="0.0" slowdown_ratio="0.0" speed="13.89" to="node_55" type="highway.undefined" />
    <edge disallow="tram rail_urban rail rail_electric ship" dump_speed="13.89" from="node_56" id="xedge_02x28" len="100.0" numLanes="1" priority="5" slowdown="0.0" slowdown_ratio="0.0" speed="13.89" to="node_57" type="highway.undefined" />
    <edge disallow="tram rail_urban rail rail_electric ship" dump_speed="13.89" from="node_57" id="xedge_02x29" len="100.0" numLanes="1" priority="5" slowdown="0.0" slowdown_ratio="0.0" speed="13.89" to="node_56" type="highway.undefined" />
    <edge disallow="tram rail_urban rail rail_electric ship" dump_speed="13.89" from="node_57" id="xedge_02x30" len="100.0" numLanes="1" priority="5" slowdown="0.0" slowdown_ratio="0.0" speed="13.89" to="node_58" type="highway.undefined" />
    <edge disallow="tram rail_urban rail rail_electric ship" dump_speed="13.89" from="node_58" id="xedge_02x31" len="100.0" numLanes="1" priority="5" slowdown="0.0" slowdown_ratio="0.0" speed="13.89" to="node_57" type="highway.undefined" />
    <edge disallow="tram rail_urban rail rail_electric ship" dump_speed="13.89" from="node_58" id="xedge_02x32" len="100.0" numLanes="1" priority="5" slowdown="0.0" slowdown_ratio="0.0" speed="13.89" to="node_59" type="highway.undefined" />
    <edge disallow="tram rail_urban rail rail_electric ship" dump_speed="13.89" from="node_59" id="xedge_02x33" len="100.0" numLanes="1" priority="5" slowdown="0.0" slowdown_ratio="0.0" speed="13.89" to="node_58" type="highway.undefined" />
    <edge disallow="tram rail_urban rail rail_electric ship" dump_speed="13.89" from="node_59" id="xedge_02x34" len="100.0" numLanes="1" priority="5" slowdown="0.0" slowdown_ratio="0.0" speed="13.89" to="node_60" type="highway.undefined" />
    <edge disallow="tram rail_urban rail rail_electric ship" dump_speed="13.89" from="node_60" id="xedge_02x35" len="100.0" numLanes="1" priority="5" slowdown="0.0" slowdown_ratio="0.0" speed="13.89" to="node_59" type="highway.undefined" />
    <edge disallow="tram rail_urban rail rail_electric ship" dump_speed="13.89" from="node_60" id="xedge_02x36" len="100.0" numLanes="1" priority="5" slowdown="0.0" slowdown_ratio="0.0" speed="13.89" to="node_61" type="highway.undefined" />
    <edge disallow="tram rail_urban rail rail_electric ship" dump_speed="13.89" from="node_61" id="xedge_02x37" len="100.0" numLanes="1" priority="5" slowdown="0.0" slowdown_ratio="0.0" speed="13.89" to="node_60" type="highway.undefined" />
    <edge disallow="tram rail_urban rail rail_electric ship" dump_speed="13.89" from="node_61" id="xedge_02x38" len="100.0" numLanes="1" priority="5" slowdown="0.0" slowdown_ratio="0.0" speed="13.89" to="node_62" type="highway.undefined" />