<?xml version='1.0' encoding='UTF-8'?>
<nodes xmlns:xsi="http://www.w3.org/2001/XMLSchema-instance" version="0.27" xsi:noNamespaceSchemaLocation="http://sumo.dlr.de/xsd/edges_file.xsd"><node avg_slowdown_ratio="0.999280057598" id="node_10x10" junction="True" old_x="1000.0" old_y="1000.0" type="priority" weight_num="4.0" weight_sum="3.99712023039" x="1000.0" x_displacement_sum="0.0" y="1000.0" y_displacement_sum="0.0" />
    <node avg_slowdown_ratio="0.0" id="node_00x00" junction="True" old_x="0.0" old_y="0.0" type="priority" weight_num="2.0" weight_sum="0.0" x="-13.8510208784" x_displacement_sum="-13.8510208784" y="-13.8510208784" y_displacement_sum="-13.8510208784" />
    <node avg_slowdown_ratio="0.0" id="node_00x01" junction="True" old_x="0.0" old_y="100.0" type="priority" weight_num="3.0" weight_sum="0.0" x="-15.3049954457" x_displacement_sum="-15.3049954457" y="86.2255040989" y_displacement_sum="-13.7744959011" />
    <node avg_slowdown_ratio="0.0" id="node_00x02" junction="True" old_x="0.0" old_y="200.0" type="priority" weight_num="3.0" weight_sum="0.0" x="-16.8914888761" x_displacement_sum="-16.8914888761" y="186.486808899" y_displacement_sum="-13.5131911008" />
    <node avg_slowdown_ratio="0.0" id="node_00x03" junction="True" old_x="0.0" old_y="300.0" type="priority" weight_num="3.0" weight_sum="0.0" x="-18.5919743334" x_displacement_sum="-18.5919743334" y="286.985617967" y_displacement_sum="-13.0143820334" />
    <node avg_slowdown_ratio="0.0" id="node_00x04" junction="True" old_x="0.0" old_y="400.0" type="priority" weight_num="3.0" weight_sum="0.0" x="-20.3691483505" x_displacement_sum="-20.3691483505" y="387.77851099" y_displacement_sum="-12.2214890103" />
    <node avg_slowdown_ratio="0.0" id="node_00x05" junction="True" old_x="0.0" old_y="500.0" type="priority" weight_num="3.0" weight_sum="0.0" x="-22.1616334054" x_displacement_sum="-22.1616334054" y="488.919183297" y_displacement_sum="-11.0808167027" />
    <node avg_slowdown_ratio="0.0" id="node_00x06" junction="True" old_x="0.0" old_y="600.0" type="priority" weight_num="3.0" weight_sum="0.0" x="-23.8810704799" x_displacement_sum="-23.8810704799" y="590.447571808" y_displacement_sum="-9.55242819198" />
    <node avg_slowdown_ratio="0.0" id="node_00x07" junction="True" old_x="0.0" old_y="700.0" type="priority" weight_num="3.0" weight_sum="0.0" x="-25.414717208" x_displacement_sum="-25.414717208" y="692.375584838" y_displacement_sum="-7.6244151624" />
    <node avg_slowdown_ratio="0.0" id="node_00x08" junction="True" old_x="0.0" old_y="800.0" type="priority" weight_num="3.0" weight_sum="0.0" x="-26.6365786122" x_displacement_sum="-26.6365786122" y="794.672684278" y_displacement_sum="-5.32731572245" />
    <node avg_slowdown_ratio="0.0" id="node_00x09" junction="True" old_x="0.0" old_y="900.0" type="priority" weight_num="3.0" weight_sum="0.0" x="-27.4277641156" x_displacement_sum="-27.4277641156" y="897.257223588" y_displacement_sum="-2.74277641156" />
    <node avg_slowdown_ratio="0.0" id="node_00x10" junction="True" old_x="0.0" old_y="1000.0" type="priority" weight_num="3.0" weight_sum="0.0" x="-27.7020417567" x_displacement_sum="-27.7020417567" y="1000.0" y_displacement_sum="0.0" />
    <node avg_slowdown_ratio="0.0" id="node_00x11" junction="True" old_x="0.0" old_y="1100.0" type="priority" weight_num="3.0" weight_sum="0.0" x="-27.4277641156" x_displacement_sum="-27.4277641156" y="1102.74277641" y_displacement_sum="2.74277641156" />
    <node avg_slowdown_ratio="0.0" id="node_00x12" junction="True" old_x="0.0" old_y="1200.0" type="priority" weight_num="3.0" weight_sum="0.0" x="-26.6365786122" x_displacement_sum="-26.6365786122" y="1205.32731572" y_displacement_sum="5.32731572245" />
    <node avg_slowdown_ratio="0.0" id="node_00x13" junction="True" old_x="0.0" old_y="1300.0" type="priority" weight_num="3.0" weight_sum="0.0" x="-25.414717208" x_displacement_sum="-25.414717208" y="1307.62441516" y_displacement_sum="7.6244151624" />
    <node avg_slowdown_ratio="0.0" id="node_00x14" junction="True" old_x="0.0" old_y="1400.0" type="priority" weight_num="3.0" weight_sum="0.0" x="-23.8810704799" x_displacement_sum="-23.8810704799" y="1409.55242819" y_displacement_sum="9.55242819198" />
    <node avg_slowdown_ratio="0.0" id="node_00x15" junction="True" old_x="0.0" old_y="1500.0" type="priority" weight_num="3.0" weight_sum="0.0" x="-22.1616334054" x_displacement_sum="-22.1616334054" y="1511.0808167" y_displacement_sum="11.0808167027" />
    <node avg_slowdown_ratio="0.0" id="node_00x16" junction="True" old_x="0.0" old_y="1600.0" type="priority" weight_num="3.0" weight_sum="0.0" x="-20.3691483505" x_displacement_sum="-20.3691483505" y="1612.22148901" y_displacement_sum="12.2214890103" />
    <node avg_slowdown_ratio="0.0" id="node_00x17" junction="True" old_x="0.0" old_y="1700.0" type="priority" weight_num="3.0" weight_sum="0.0" x="-18.5919743334" x_displacement_sum="-18.5919743334" y="1713.01438203" y_displacement_sum="13.0143820334" />
    <node avg_slowdown_ratio="0.0" id="node_00x18" junction="True" old_x="0.0" old_y="1800.0" type="priority" weight_num="3.0" weight_sum="0.0" x="-16.8914888761" x_displacement_sum="-16.8914888761" y="1813.5131911" y_displacement_sum="13.5131911008" />
    <node avg_slowdown_ratio="0.0" id="node_00x19" junction="True" old_x="0.0" old_y="1900.0" type="priority" weight_num="3.0" weight_sum="0.0" x="-15.3049954457" x_displacement_sum="-15.3049954457" y="1913.7744959" y_displacement_sum="13.7744959011" />
    <node avg_slowdown_ratio="0.0" id="node_00x20" junction="True" old_x="0.0" old_y="2000.0" type="priority" weight_num="2.0" weight_sum="0.0" x="-13.8510208784" x_displacement_sum="-13.8510208784" y="2013.85102088" y_displacement_sum="13.8510208784" />
    <node avg_slowdown_ratio="0.0" id="node_01x00" junction="True" old_x="100.0" old_y="0.0" type="priority" weight_num="3.0" weight_sum="0.0" x="86.2255040989" x_displacement_sum="-13.7744959011" y="-15.3049954457" y_displacement_sum="-15.3049954457" />
    <node avg_slowdown_ratio="0.0" id="node_01x01" junction="True" old_x="100.0" old_y="100.0" type="priority" weight_num="4.0" weight_sum="0.0" x="84.6099768018" x_displacement_sum="-15.3900231982" y="84.6099768018" y_displacement_sum="-15.3900231982" />
    <node avg_slowdown_ratio="0.0" id="node_01x02" junction="True" old_x="100.0" old_y="200.0" type="priority" weight_num="4.0" weight_sum="0.0" x="82.8056292544" x_displacement_sum="-17.1943707456" y="184.716114893" y_displacement_sum="-15.2838851072" />
    <node avg_slowdown_ratio="0.0" id="node_01x03" junction="True" old_x="100.0" old_y="300.0" type="priority" weight_num="4.0" weight_sum="0.0" x="80.8216633992" x_displacement_sum="-19.1783366008" y="285.083515977" y_displacement_sum="-14.9164840229" />
    <node avg_slowdown_ratio="0.0" id="node_01x04" junction="True" old_x="100.0" old_y="400.0" type="priority" weight_num="4.0" weight_sum="0.0" x="78.6907371102" x_displacement_sum="-21.3092628898" y="385.79382474" y_displacement_sum="-14.2061752599" />
    <node avg_slowdown_ratio="0.0" id="node_01x05" junction="True" old_x="100.0" old_y="500.0" type="priority" weight_num="4.0" weight_sum="0.0" x="76.4793985084" x_displacement_sum="-23.5206014916" y="486.932999171" y_displacement_sum="-13.0670008286" />
    <node avg_slowdown_ratio="0.0" id="node_01x06" junction="True" old_x="100.0" old_y="600.0" type="priority" weight_num="4.0" weight_sum="0.0" x="74.2970746587" x_displacement_sum="-25.7029253413" y="588.576477626" y_displacement_sum="-11.4235223739" />
    <node avg_slowdown_ratio="0.0" id="node_01x07" junction="True" old_x="100.0" old_y="700.0" type="priority" weight_num="4.0" weight_sum="0.0" x="72.2979582433" x_displacement_sum="-27.7020417567" y="690.765986081" y_displacement_sum="-9.23401391891" />
    <node avg_slowdown_ratio="0.0" id="node_01x08" junction="True" old_x="100.0" old_y="800.0" type="priority" weight_num="4.0" weight_sum="0.0" x="70.6684263752" x_displacement_sum="-29.3315736248" y="793.481872528" y_displacement_sum="-6.51812747217" />
    <node avg_slowdown_ratio="0.0" id="node_01x09" junction="True" old_x="100.0" old_y="900.0" type="priority" weight_num="4.0" weight_sum="0.0" x="69.5953200231" x_displacement_sum="-30.4046799769" y="896.621702225" y_displacement_sum="-3.37829777521" />
    <node avg_slowdown_ratio="0.0" id="node_01x10" junction="True" old_x="100.0" old_y="1000.0" type="priority" weight_num="4.0" weight_sum="0.0" x="69.2199536036" x_displacement_sum="-30.7800463964" y="1000.0" y_displacement_sum="0.0" />
    <node avg_slowdown_ratio="0.0" id="node_01x11" junction="True" old_x="100.0" old_y="1100.0" type="priority" weight_num="4.0" weight_sum="0.0" x="69.5953200231" x_displacement_sum="-30.4046799769" y="1103.37829778" y_displacement_sum="3.37829777521" />
    <node avg_slowdown_ratio="0.0" id="node_01x12" junction="True" old_x="100.0" old_y="1200.0" type="priority" weight_num="4.0" weight_sum="0.0" x="70.6684263752" x_displacement_sum="-29.3315736248" y="1206.51812747" y_displacement_sum="6.51812747217" />
    <node avg_slowdown_ratio="0.0" id="node_01x13" junction="True" old_x="100.0" old_y="1300.0" type="priority" weight_num="4.0" weight_sum="0.0" x="72.2979582433" x_displacement_sum="-27.7020417567" y="1309.23401392" y_displacement_sum="9.23401391891" />
    <node avg_slowdown_ratio="0.0" id="node_01x14" junction="True" old_x="100.0" old_y="1400.0" type="priority" weight_num="4.0" weight_sum="0.0" x="74.2970746587" x_displacement_sum="-25.7029253413" y="1411.42352237" y_displacement_sum="11.4235223739" />
    <node avg_slowdown_ratio="0.0" id="node_01x15" junction="True" old_x="100.0" old_y="1500.0" type="priority" weight_num="4.0" weight_sum="0.0" x="76.4793985084" x_displacement_sum="-23.5206014916" y="1513.06700083" y_displacement_sum="13.0670008286" />
    <node avg_slowdown_ratio="0.0" id="node_01x16" junction="True" old_x="100.0" old_y="1600.0" type="priority" weight_num="4.0" weight_sum="0.0" x="78.6907371102" x_displacement_sum="-21.3092628898" y="1614.20617526" y_displacement_sum="14.2061752599" />
    <node avg_slowdown_ratio="0.0" id="node_01x17" junction="True" old_x="100.0" old_y="1700.0" type="priority" weight_num="4.0" weight_sum="0.0" x="80.8216633992" x_displacement_sum="-19.1783366008" y="1714.91648402" y_displacement_sum="14.9164840229" />
    <node avg_slowdown_ratio="0.0" id="node_01x18" junction="True" old_x="100.0" old_y="1800.0" type="priority" weight_num="4.0" weight_sum="0.0" x="82.8056292544" x_displacement_sum="-17.1943707456" y="1815.28388511" y_displacement_sum="15.2838851072" />
    <node avg_slowdown_ratio="0.0" id="node_01x19" junction="True" old_x="100.0" old_y="1900.0" type="priority" weight_num="4.0" weight_sum="0.0" x="84.6099768018" x_displacement_sum="-15.3900231982" y="1915.3900232" y_displacement_sum="15.3900231982" />
    <node avg_slowdown_ratio="0.0" id="node_01x20" junction="True" old_x="100.0" old_y="2000.0" type="priority" weight_num="3.0" weight_sum="0.0" x="86.2255040989" x_displacement_sum="-13.7744959011" y="2015.30499545" y_displacement_sum="15.3049954457" />
    <node avg_slowdown_ratio="0.0" id="node_02x00" junction="True" old_x="200.0" old_y="0.0" type="priority" weight_num="3.0" weight_sum="0.0" x="186.486808899" x_displacement_sum="-13.5131911008" y="-16.8914888761" y_displacement_sum="-16.8914888761" />
    <node avg_slowdown_ratio="0.0" id="node_02x01" junction="True" old_x="200.0" old_y="100.0" type="priority" weight_num="4.0" weight_sum="0.0" x="184.716114893" x_displacement_sum="-15.2838851072" y="82.8056292544" y_displacement_sum="-17.1943707456" />
    <node avg_slowdown_ratio="0.0" id="node_02x02" junction="True" old_x="200.0" old_y="200.0" type="priority" weight_num="4.0" weight_sum="0.0" x="182.686223902" x_displacement_sum="-17.313776098" y="182.686223902" y_displacement_sum="-17.313776098" />
    <node avg_slowdown_ratio="0.0" id="node_02x03" junction="True" old_x="200.0" old_y="300.0" type="priority" weight_num="4.0" weight_sum="0.0" x="180.38793504" x_displacement_sum="-19.6120649605" y="282.839443159" y_displacement_sum="-17.1605568405" />
    <node avg_slowdown_ratio="0.0" id="node_02x04" junction="True" old_x="200.0" old_y="400.0" type="priority" weight_num="4.0" weight_sum="0.0" x="177.838366595" x_displacement_sum="-22.1616334054" y="383.378774946" y_displacement_sum="-16.621225054" />
    <node avg_slowdown_ratio="0.0" id="node_02x05" junction="True" old_x="200.0" old_y="500.0" type="priority" weight_num="4.0" weight_sum="0.0" x="175.099288309" x_displacement_sum="-24.9007116914" y="484.437055193" y_displacement_sum="-15.5629448072" />
    <node avg_slowdown_ratio="0.0" id="node_02x06" junction="True" old_x="200.0" old_y="600.0" type="priority" weight_num="4.0" weight_sum="0.0" x="172.297958243" x_displacement_sum="-27.7020417567" y="586.148979122" y_displacement_sum="-13.8510208784" />
    <node avg_slowdown_ratio="0.0" id="node_02x07" junction="True" old_x="200.0" old_y="700.0" type="priority" weight_num="4.0" weight_sum="0.0" x="169.641598075" x_displacement_sum="-30.3584019252" y="688.615599278" y_displacement_sum="-11.3844007219" />
    <node avg_slowdown_ratio="0.0" id="node_02x08" junction="True" old_x="200.0" old_y="800.0" type="priority" weight_num="4.0" weight_sum="0.0" x="167.409362639" x_displacement_sum="-32.5906373609" y="791.85234066" y_displacement_sum="-8.14765934022" />
    <node avg_slowdown_ratio="0.0" id="node_02x09" junction="True" old_x="200.0" old_y="900.0" type="priority" weight_num="4.0" weight_sum="0.0" x="165.905179376" x_displacement_sum="-34.0948206237" y="895.738147422" y_displacement_sum="-4.26185257796" />
    <node avg_slowdown_ratio="0.0" id="node_02x10" junction="True" old_x="200.0" old_y="1000.0" type="priority" weight_num="4.0" weight_sum="0.0" x="165.372447804" x_displacement_sum="-34.6275521959" y="1000.0" y_displacement_sum="0.0" />
    <node avg_slowdown_ratio="0.0" id="node_02x11" junction="True" old_x="200.0" old_y="1100.0" type="priority" weight_num="4.0" weight_sum="0.0" x="165.905179376" x_displacement_sum="-34.0948206237" y="1104.26185258" y_displacement_sum="4.26185257796" />
    <node avg_slowdown_ratio="0.0" id="node_02x12" junction="True" old_x="200.0" old_y="1200.0" type="priority" weight_num="4.0" weight_sum="0.0" x="167.409362639" x_displacement_sum="-32.5906373609" y="1208.14765934" y_displacement_sum="8.14765934022" />
    <node avg_slowdown_ratio="0.0" id="node_02x13" junction="True" old_x="200.0" old_y="1300.0" type="priority" weight_num="4.0" weight_sum="0.0" x="169.641598075" x_displacement_sum="-30.3584019252" y="1311.38440072" y_displacement_sum="11.3844007219" />
    <node avg_slowdown_ratio="0.0" id="node_02x14" junction="True" old_x="200.0" old_y="1400.0" type="priority" weight_num="4.0" weight_sum="0.0" x="172.297958243" x_displacement_sum="-27.7020417567" y="1413.85102088" y_displacement_sum="13.8510208784" />
    <node avg_slowdown_ratio="0.0" id="node_02x15" junction="True" old_x="200.0" old_y="1500.0" type="priority" weight_num="4.0" weight_sum="0.0" x="175.099288309" x_displacement_sum="-24.9007116914" y="1515.56294481" y_displacement_sum="15.5629448072" />
    <node avg_slowdown_ratio="0.0" id="node_02x16" junction="True" old_x="200.0" old_y="1600.0" type="priority" weight_num="4.0" weight_sum="0.0" x="177.838366595" x_displacement_sum="-22.1616334054" y="1616.62122505" y_displacement_sum="16.621225054" />
    <node avg_slowdown_ratio="0.0" id="node_02x17" junction="True" old_x="200.0" old_y="1700.0" type="priority" weight_num="4.0" weight_sum="0.0" x="180.38793504" x_displacement_sum="-19.6120649605" y="1717.16055684" y_displacement_sum="17.1605568405" />
    <node avg_slowdown_ratio="0.0" id="node_02x18" junction="True" old_x="200.0" old_y="1800.0" type="priority" weight_num="4.0" weight_sum="0.0" x="182.686223902" x_displacement_sum="-17.313776098" y="1817.3137761" y_displacement_sum="17.313776098" />
    <node avg_slowdown_ratio="0.0" id="node_02x19" junction="True" old_x="200.0" old_y="1900.0" type="priority" weight_num="4.0" weight_sum="0.0" x="184.716114893" x_displacement_sum="-15.2838851072" y="1917.19437075" y_displacement_sum="17.1943707456" />
    <node avg_slowdown_ratio="0.0" id="node_02x20" junction="True" old_x="200.0" old_y="2000.0" type="priority" weight_num="3.0" weight_sum="0.0" x="186.486808899" x_displacement_sum="-13.5131911008" y="2016.89148888" y_displacement_sum="16.8914888761" />
    <node avg_slowdown_ratio="0.0" id="node_03x00" junction="True" old_x="300.0" old_y="0.0" type="priority" weight_num="3.0" weight_sum="0.0" x="286.985617967" x_displacement_sum="-13.0143820334" y="-18.5919743334" y_displacement_sum="-18.5919743334" />
    <node avg_slowdown_ratio="0.0" id="node_03x01" junction="True" old_x="300.0" old_y="100.0" type="priority" weight_num="4.0" weight_sum="0.0" x="285.083515977" x_displacement_sum="-14.9164840229" y="80.8216633992" y_displacement_sum="-19.1783366008" />
    <node avg_slowdown_ratio="0.0" id="node_03x02" junction="True" old_x="300.0" old_y="200.0" type="priority" weight_num="4.0" weight_sum="0.0" x="282.839443159" x_displacement_sum="-17.1605568405" y="180.38793504" y_displacement_sum="-19.6120649605" />
    <node avg_slowdown_ratio="0.0" id="node_03x03" junction="True" old_x="300.0" old_y="300.0" type="priority" weight_num="4.0" weight_sum="0.0" x="280.212827317" x_displacement_sum="-19.7871726834" y="280.212827317" y_displacement_sum="-19.7871726834" />
    <node avg_slowdown_ratio="0.0" id="node_03x04" junction="True" old_x="300.0" old_y="400.0" type="priority" weight_num="4.0" weight_sum="0.0" x="277.186553847" x_displacement_sum="-22.8134461526" y="380.445617583" y_displacement_sum="-19.5543824165" />
    <node avg_slowdown_ratio="0.0" id="node_03x05" junction="True" old_x="300.0" old_y="500.0" type="priority" weight_num="4.0" weight_sum="0.0" x="273.795365906" x_displacement_sum="-26.2046340942" y="481.282404218" y_displacement_sum="-18.7175957816" />
    <node avg_slowdown_ratio="0.0" id="node_03x06" junction="True" old_x="300.0" old_y="600.0" type="priority" weight_num="4.0" weight_sum="0.0" x="270.167031954" x_displacement_sum="-29.8329680457" y="582.952589688" y_displacement_sum="-17.0474103118" />
    <node avg_slowdown_ratio="0.0" id="node_03x07" junction="True" old_x="300.0" old_y="700.0" type="priority" weight_num="4.0" weight_sum="0.0" x="266.566501328" x_displacement_sum="-33.4334986719" y="685.671357712" y_displacement_sum="-14.328642288" />
    <node avg_slowdown_ratio="0.0" id="node_03x08" junction="True" old_x="300.0" old_y="800.0" type="priority" weight_num="4.0" weight_sum="0.0" x="263.41239768" x_displacement_sum="-36.5876023202" y="789.546399337" y_displacement_sum="-10.4536006629" />
    <node avg_slowdown_ratio="0.0" id="node_03x09" junction="True" old_x="300.0" old_y="900.0" type="priority" weight_num="4.0" weight_sum="0.0" x="261.217141541" x_displacement_sum="-38.7828584594" y="894.459591649" y_displacement_sum="-5.54040835135" />
    <node avg_slowdown_ratio="0.0" id="node_03x10" junction="True" old_x="300.0" old_y="1000.0" type="priority" weight_num="4.0" weight_sum="0.0" x="260.425654633" x_displacement_sum="-39.5743453668" y="1000.0" y_displacement_sum="0.0" />
    <node avg_slowdown_ratio="0.0" id="node_03x11" junction="True" old_x="300.0" old_y="1100.0" type="priority" weight_num="4.0" weight_sum="0.0" x="261.217141541" x_displacement_sum="-38.7828584594" y="1105.54040835" y_displacement_sum="5.54040835135" />
    <node avg_slowdown_ratio="0.0" id="node_03x12" junction="True" old_x="300.0" old_y="1200.0" type="priority" weight_num="4.0" weight_sum="0.0" x="263.41239768" x_displacement_sum="-36.5876023202" y="1210.45360066" y_displacement_sum="10.4536006629" />
    <node avg_slowdown_ratio="0.0" id="node_03x13" junction="True" old_x="300.0" old_y="1300.0" type="priority" weight_num="4.0" weight_sum="0.0" x="266.566501328" x_displacement_sum="-33.4334986719" y="1314.32864229" y_displacement_sum="14.328642288" />
    <node avg_slowdown_ratio="0.0" id="node_03x14" junction="True" old_x="300.0" old_y="1400.0" type="priority" weight_num="4.0" weight_sum="0.0" x="270.167031954" x_displacement_sum="-29.8329680457" y="1417.04741031" y_displacement_sum="17.0474103118" />
    <node avg_slowdown_ratio="0.0" id="node_03x15" junction="True" old_x="300.0" old_y="1500.0" type="priority" weight_num="4.0" weight_sum="0.0" x="273.795365906" x_displacement_sum="-26.2046340942" y="1518.71759578" y_displacement_sum="18.7175957816" />
    <node avg_slowdown_ratio="0.0" id="node_03x16" junction="True" old_x="300.0" old_y="1600.0" type="priority" weight_num="4.0" weight_sum="0.0" x="277.186553847" x_displacement_sum="-22.8134461526" y="1619.55438242" y_displacement_sum="19.5543824165" />
    <node avg_slowdown_ratio="0.0" id="node_03x17" junction="True" old_x="300.0" old_y="1700.0" type="priority" weight_num="4.0" weight_sum="0.0" x="280.212827317" x_displacement_sum="-19.7871726834" y="1719.78717268" y_displacement_sum="19.7871726834" />
    <node avg_slowdown_ratio="0.0" id="node_03x18" junction="True" old_x="300.0" old_y="1800.0" type="priority" weight_num="4.0" weight_sum="0.0" x="282.839443159" x_displacement_sum="-17.1605568405" y="1819.61206496" y_displacement_sum="19.6120649605" />
    <node avg_slowdown_ratio="0.0" id="node_03x19" junction="True" old_x="300.0" old_y="1900.0" type="priority" weight_num="4.0" weight_sum="0.0" x="285.083515977" x_displacement_sum="-14.9164840229" y="1919.1783366" y_displacement_sum="19.1783366008" />
    <node avg_slowdown_ratio="0.0" id="node_03x20" junction="True" old_x="300.0" old_y="2000.0" type="priority" weight_num="3.0" weight_sum="0.0" x="286.985617967" x_displacement_sum="-13.0143820334" y="2018.59197433" y_displacement_sum="18.5919743334" />
    <node avg_slowdown_ratio="0.0" id="node_04x00" junction="True" old_x="400.0" old_y="0.0" type="priority" weight_num="3.0" weight_sum="0.0" x="387.77851099" x_displacement_sum="-12.2214890103" y="-20.3691483505" y_displacement_sum="-20.3691483505" />
    <node avg_slowdown_ratio="0.0" id="node_04x01" junction="True" old_x="400.0" old_y="100.0" type="priority" weight_num="4.0" weight_sum="0.0" x="385.79382474" x_displacement_sum="-14.2061752599" y="78.6907371102" y_displacement_sum="-21.3092628898" />
    <node avg_slowdown_ratio="0.0" id="node_04x02" junction="True" old_x="400.0" old_y="200.0" type="priority" weight_num="4.0" weight_sum="0.0" x="383.378774946" x_displacement_sum="-16.621225054" y="177.838366595" y_displacement_sum="-22.1616334054" />
    <node avg_slowdown_ratio="0.0" id="node_04x03" junction="True" old_x="400.0" old_y="300.0" type="priority" weight_num="4.0" weight_sum="0.0" x="380.445617583" x_displacement_sum="-19.5543824165" y="277.186553847" y_displacement_sum="-22.8134461526" />
    <node avg_slowdown_ratio="0.0" id="node_04x04" junction="True" old_x="400.0" old_y="400.0" type="priority" weight_num="4.0" weight_sum="0.0" x="376.914965203" x_displacement_sum="-23.0850347973" y="376.914965203" y_displacement_sum="-23.0850347973" />
    <node avg_slowdown_ratio="0.0" id="node_04x05" junction="True" old_x="400.0" old_y="500.0" type="priority" weight_num="4.0" weight_sum="0.0" x="372.752090075" x_displacement_sum="-27.2479099247" y="477.293408396" y_displacement_sum="-22.7065916039" />
    <node avg_slowdown_ratio="0.0" id="node_04x06" junction="True" old_x="400.0" old_y="600.0" type="priority" weight_num="4.0" weight_sum="0.0" x="368.036105665" x_displacement_sum="-31.9638943347" y="578.69073711" y_displacement_sum="-21.3092628898" />
    <node avg_slowdown_ratio="0.0" id="node_04x07" junction="True" old_x="400.0" old_y="700.0" type="priority" weight_num="4.0" weight_sum="0.0" x="363.063944324" x_displacement_sum="-36.9360556756" y="681.531972162" y_displacement_sum="-18.4680278378" />
    <node avg_slowdown_ratio="0.0" id="node_04x08" junction="True" old_x="400.0" old_y="800.0" type="priority" weight_num="4.0" weight_sum="0.0" x="358.446937365" x_displacement_sum="-41.5530626351" y="786.148979122" y_displacement_sum="-13.8510208784" />
    <node avg_slowdown_ratio="0.0" id="node_04x09" junction="True" old_x="400.0" old_y="900.0" type="priority" weight_num="4.0" weight_sum="0.0" x="355.077770124" x_displacement_sum="-44.9222298758" y="892.512961687" y_displacement_sum="-7.48703831263" />
    <node avg_slowdown_ratio="0.0" id="node_04x10" junction="True" old_x="400.0" old_y="1000.0" type="priority" weight_num="4.0" weight_sum="0.0" x="353.829930405" x_displacement_sum="-46.1700695946" y="1000.0" y_displacement_sum="0.0" />
    <node avg_slowdown_ratio="0.0" id="node_04x11" junction="True" old_x="400.0" old_y="1100.0" type="priority" weight_num="4.0" weight_sum="0.0" x="355.077770124" x_displacement_sum="-44.9222298758" y="1107.48703831" y_displacement_sum="7.48703831263" />
    <node avg_slowdown_ratio="0.0" id="node_04x12" junction="True" old_x="400.0" old_y="1200.0" type="priority" weight_num="4.0" weight_sum="0.0" x="358.446937365" x_displacement_sum="-41.5530626351" y="1213.85102088" y_displacement_sum="13.8510208784" />
    <node avg_slowdown_ratio="0.0" id="node_04x13" junction="True" old_x="400.0" old_y="1300.0" type="priority" weight_num="4.0" weight_sum="0.0" x="363.063944324" x_displacement_sum="-36.9360556756" y="1318.46802784" y_displacement_sum="18.4680278378" />
    <node avg_slowdown_ratio="0.0" id="node_04x14" junction="True" old_x="400.0" old_y="1400.0" type="priority" weight_num="4.0" weight_sum="0.0" x="368.036105665" x_displacement_sum="-31.9638943347" y="1421.30926289" y_displacement_sum="21.3092628898" />
    <node avg_slowdown_ratio="0.0" id="node_04x15" junction="True" old_x="400.0" old_y="1500.0" type="priority" weight_num="4.0" weight_sum="0.0" x="372.752090075" x_displacement_sum="-27.2479099247" y="1522.7065916" y_displacement_sum="22.7065916039" />
    <node avg_slowdown_ratio="0.0" id="node_04x16" junction="True" old_x="400.0" old_y="1600.0" type="priority" weight_num="4.0" weight_sum="0.0" x="376.914965203" x_displacement_sum="-23.0850347973" y="1623.0850348" y_displacement_sum="23.0850347973" />
    <node avg_slowdown_ratio="0.0" id="node_04x17" junction="True" old_x="400.0" old_y="1700.0" type="priority" weight_num="4.0" weight_sum="0.0" x="380.445617583" x_displacement_sum="-19.5543824165" y="1722.81344615" y_displacement_sum="22.8134461526" />
    <node avg_slowdown_ratio="0.0" id="node_04x18" junction="True" old_x="400.0" old_y="1800.0" type="priority" weight_num="4.0" weight_sum="0.0" x="383.378774946" x_displacement_sum="-16.621225054" y="1822.16163341" y_displacement_sum="22.1616334054" />
    <node avg_slowdown_ratio="0.0" id="node_04x19" junction="True" old_x="400.0" old_y="1900.0" type="priority" weight_num="4.0" weight_sum="0.0" x="385.79382474" x_displacement_sum="-14.2061752599" y="1921.30926289" y_displacement_sum="21.3092628898" />
    <node avg_slowdown_ratio="0.0" id="node_04x20" junction="True" old_x="400.0" old_y="2000.0" type="priority" weight_num="3.0" weight_sum="0.0" x="387.77851099" x_displacement_sum="-12.2214890103" y="2020.36914835" y_displacement_sum="20.3691483505" />
    <node avg_slowdown_ratio="0.0" id="node_05x00" junction="True" old_x="500.0" old_y="0.0" type="priority" weight_num="3.0" weight_sum="0.0" x="488.919183297" x_displacement_sum="-11.0808167027" y="-22.1616334054" y_displacement_sum="-22.1616334054" />
    <node avg_slowdown_ratio="0.0" id="node_05x01" junction="True" old_x="500.0" old_y="100.0" type="priority" weight_num="4.0" weight_sum="0.0" x="486.932999171" x_displacement_sum="-13.0670008286" y="76.4793985084" y_displacement_sum="-23.5206014916" />
    <node avg_slowdown_ratio="0.0" id="node_05x02" junction="True" old_x="500.0" old_y="200.0" type="priority" weight_num="4.0" weight_sum="0.0" x="484.437055193" x_displacement_sum="-15.5629448072" y="175.099288309" y_displacement_sum="-24.9007116914" />
    <node avg_slowdown_ratio="0.0" id="node_05x03" junction="True" old_x="500.0" old_y="300.0" type="priority" weight_num="4.0" weight_sum="0.0" x="481.282404218" x_displacement_sum="-18.7175957816" y="273.795365906" y_displacement_sum="-26.2046340942" />
    <node avg_slowdown_ratio="0.0" id="node_05x04" junction="True" old_x="500.0" old_y="400.0" type="priority" weight_num="4.0" weight_sum="0.0" x="477.293408396" x_displacement_sum="-22.7065916039" y="372.752090075" y_displacement_sum="-27.2479099247" />
    <node avg_slowdown_ratio="0.0" id="node_05x05" junction="True" old_x="500.0" old_y="500.0" type="priority" weight_num="4.0" weight_sum="0.0" x="472.297958243" x_displacement_sum="-27.7020417567" y="472.297958243" y_displacement_sum="-27.7020417567" />
    <node avg_slowdown_ratio="0.0" id="node_05x06" junction="True" old_x="500.0" old_y="600.0" type="priority" weight_num="4.0" weight_sum="0.0" x="466.217022248" x_displacement_sum="-33.7829777521" y="572.973617798" y_displacement_sum="-27.0263822017" />
    <node avg_slowdown_ratio="0.0" id="node_05x07" junction="True" old_x="500.0" old_y="700.0" type="priority" weight_num="4.0" weight_sum="0.0" x="459.261703299" x_displacement_sum="-40.7382967011" y="675.557021979" y_displacement_sum="-24.4429780206" />
    <node avg_slowdown_ratio="0.0" id="node_05x08" junction="True" old_x="500.0" old_y="800.0" type="priority" weight_num="4.0" weight_sum="0.0" x="452.23785904" x_displacement_sum="-47.7621409599" y="780.895143616" y_displacement_sum="-19.104856384" />
    <node avg_slowdown_ratio="0.0" id="node_05x09" junction="True" old_x="500.0" old_y="900.0" type="priority" weight_num="4.0" weight_sum="0.0" x="446.726842776" x_displacement_sum="-53.2731572245" y="889.345368555" y_displacement_sum="-10.6546314449" />
    <node avg_slowdown_ratio="0.0" id="node_05x10" junction="True" old_x="500.0" old_y="1000.0" type="priority" weight_num="4.0" weight_sum="0.0" x="444.595916487" x_displacement_sum="-55.4040835135" y="1000.0" y_displacement_sum="0.0" />