<?xml version='1.0' encoding='UTF-8'?>
<nodes xmlns:xsi="http://www.w3.org/2001/XMLSchema-instance" version="0.27" xsi:noNamespaceSchemaLocation="http://sumo.dlr.de/xsd/edges_file.xsd"><node avg_slowdown_ratio="0.999280057598" id="node_10x10" junction="True" old_x="1000.0" old_y="1000.0" type="priority" weight_num="4.0" weight_sum="3.99712023039" x="1000.0" x_displacement_sum="0.0" y="1000.0" y_displacement_sum="0.0" />
    <node avg_slowdown_ratio="0.0" id="node_00x00" junction="True" old_x="0.0" old_y="0.0" type="priority" weight_num="2.0" weight_sum="0.0" x="-35.3298852516" x_displacement_sum="-35.3298852516" y="-35.3298852516" y_displacement_sum="-35.3298852516" />
    <node avg_slowdown_ratio="0.0" id="node_00x01" junction="True" old_x="0.0" old_y="100.0" type="priority" weight_num="3.0" weight_sum="0.0" x="-41.0364097942" x_displacement_sum="-41.0364097942" y="63.0672311853" y_displacement_sum="-36.9327688147" />
    <node avg_slowdown_ratio="0.0" id="node_00x02" junction="True" old_x="0.0" old_y="200.0" type="priority" weight_num="3.0" weight_sum="0.0" x="-47.5796724925" x_displacement_sum="-47.5796724925" y="161.936262006" y_displacement_sum="-38.063737994" />
    <node avg_slowdown_ratio="0.0" id="node_00x03" junction="True" old_x="0.0" old_y="300.0" type="priority" weight_num="3.0" weight_sum="0.0" x="-54.9424242096" x_displacement_sum="-54.9424242096" y="261.540303053" y_displacement_sum="-38.4596969467" />
    <node avg_slowdown_ratio="0.0" id="node_00x04" junction="True" old_x="0.0" old_y="400.0" type="priority" weight_num="3.0" weight_sum="0.0" x="-63.0055573673" x_displacement_sum="-63.0055573673" y="362.19666558" y_displacement_sum="-37.8033344204" />
    <node avg_slowdown_ratio="0.0" id="node_00x05" junction="True" old_x="0.0" old_y="500.0" type="priority" weight_num="3.0" weight_sum="0.0" x="-71.5026603952" x_displacement_sum="-71.5026603952" y="464.248669802" y_displacement_sum="-35.7513301976" />
    <node avg_slowdown_ratio="0.0" id="node_00x06" junction="True" old_x="0.0" old_y="600.0" type="priority" weight_num="3.0" weight_sum="0.0" x="-79.9834690643" x_displacement_sum="-79.9834690643" y="568.006612374" y_displacement_sum="-31.9933876257" />
    <node avg_slowdown_ratio="0.0" id="node_00x07" junction="True" old_x="0.0" old_y="700.0" type="priority" weight_num="3.0" weight_sum="0.0" x="-87.8107069234" x_displacement_sum="-87.8107069234" y="673.656787923" y_displacement_sum="-26.343212077" />
    <node avg_slowdown_ratio="0.0" id="node_00x08" junction="True" old_x="0.0" old_y="800.0" type="priority" weight_num="3.0" weight_sum="0.0" x="-94.2187225081" x_displacement_sum="-94.2187225081" y="781.156255498" y_displacement_sum="-18.8437445016" />
    <node avg_slowdown_ratio="0.0" id="node_00x09" junction="True" old_x="0.0" old_y="900.0" type="priority" weight_num="3.0" weight_sum="0.0" x="-98.4476060144" x_displacement_sum="-98.4476060144" y="890.155239399" y_displacement_sum="-9.84476060144" />
    <node avg_slowdown_ratio="0.0" id="node_00x10" junction="True" old_x="0.0" old_y="1000.0" type="priority" weight_num="3.0" weight_sum="0.0" x="-99.9280057598" x_displacement_sum="-99.9280057598" y="1000.0" y_displacement_sum="0.0" />
    <node avg_slowdown_ratio="0.0" id="node_00x11" junction="True" old_x="0.0" old_y="1100.0" type="priority" weight_num="3.0" weight_sum="0.0" x="-98.4476060144" x_displacement_sum="-98.4476060144" y="1109.8447606" y_displacement_sum="9.84476060144" />
    <node avg_slowdown_ratio="0.0" id="node_00x12" junction="True" old_x="0.0" old_y="1200.0" type="priority" weight_num="3.0" weight_sum="0.0" x="-94.2187225081" x_displacement_sum="-94.2187225081" y="1218.8437445" y_displacement_sum="18.8437445016" />
    <node avg_slowdown_ratio="0.0" id="node_00x13" junction="True" old_x="0.0" old_y="1300.0" type="priority" weight_num="3.0" weight_sum="0.0" x="-87.8107069234" x_displacement_sum="-87.8107069234" y="1326.34321208" y_displacement_sum="26.343212077" />
    <node avg_slowdown_ratio="0.0" id="node_00x14" junction="True" old_x="0.0" old_y="1400.0" type="priority" weight_num="3.0" weight_sum="0.0" x="-79.9834690643" x_displacement_sum="-79.9834690643" y="1431.99338763" y_displacement_sum="31.9933876257" />
    <node avg_slowdown_ratio="0.0" id="node_00x15" junction="True" old_x="0.0" old_y="1500.0" type="priority" weight_num="3.0" weight_sum="0.0" x="-71.5026603952" x_displacement_sum="-71.5026603952" y="1535.7513302" y_displacement_sum="35.7513301976" />
    <node avg_slowdown_ratio="0.0" id="node_00x16" junction="True" old_x="0.0" old_y="1600.0" type="priority" weight_num="3.0" weight_sum="0.0" x="-63.0055573673" x_displacement_sum="-63.0055573673" y="1637.80333442" y_displacement_sum="37.8033344204" />
    <node avg_slowdown_ratio="0.0" id="node_00x17" junction="True" old_x="0.0" old_y="1700.0" type="priority" weight_num="3.0" weight_sum="0.0" x="-54.9424242096" x_displacement_sum="-54.9424242096" y="1738.45969695" y_displacement_sum="38.4596969467" />
    <node avg_slowdown_ratio="0.0" id="node_00x18" junction="True" old_x="0.0" old_y="1800.0" type="priority" weight_num="3.0" weight_sum="0.0" x="-47.5796724925" x_displacement_sum="-47.5796724925" y="1838.06373799" y_displacement_sum="38.063737994" />
    <node avg_slowdown_ratio="0.0" id="node_00x19" junction="True" old_x="0.0" old_y="1900.0" type="priority" weight_num="3.0" weight_sum="0.0" x="-41.0364097942" x_displacement_sum="-41.0364097942" y="1936.93276881" y_displacement_sum="36.9327688147" />
    <node avg_slowdown_ratio="0.0" id="node_00x20" junction="True" old_x="0.0" old_y="2000.0" type="priority" weight_num="2.0" weight_sum="0.0" x="-35.3298852516" x_displacement_sum="-35.3298852516" y="2035.32988525" y_displacement_sum="35.3298852516" />
    <node avg_slowdown_ratio="0.0" id="node_01x00" junction="True" old_x="100.0" old_y="0.0" type="priority" weight_num="3.0" weight_sum="0.0" x="63.0672311853" x_displacement_sum="-36.9327688147" y="-41.0364097942" y_displacement_sum="-41.0364097942" />
    <node avg_slowdown_ratio="0.0" id="node_01x01" junction="True" old_x="100.0" old_y="100.0" type="priority" weight_num="4.0" weight_sum="0.0" x="56.3828577141" x_displacement_sum="-43.6171422859" y="56.3828577141" y_displacement_sum="-43.6171422859" />
    <node avg_slowdown_ratio="0.0" id="node_01x02" junction="True" old_x="100.0" old_y="200.0" type="priority" weight_num="4.0" weight_sum="0.0" x="48.4916395156" x_displacement_sum="-51.5083604844" y="154.214790681" y_displacement_sum="-45.7852093194" />
    <node avg_slowdown_ratio="0.0" id="node_01x03" junction="True" old_x="100.0" old_y="300.0" type="priority" weight_num="4.0" weight_sum="0.0" x="39.324313135" x_displacement_sum="-60.675686865" y="252.807799105" y_displacement_sum="-47.192200895" />
    <node avg_slowdown_ratio="0.0" id="node_01x04" junction="True" old_x="100.0" old_y="400.0" type="priority" weight_num="4.0" weight_sum="0.0" x="28.9357892265" x_displacement_sum="-71.0642107735" y="352.623859484" y_displacement_sum="-47.3761405157" />
    <node avg_slowdown_ratio="0.0" id="node_01x05" junction="True" old_x="100.0" old_y="500.0" type="priority" weight_num="4.0" weight_sum="0.0" x="17.591704412" x_displacement_sum="-82.408295588" y="454.217613562" y_displacement_sum="-45.7823864378" />
    <node avg_slowdown_ratio="0.0" id="node_01x06" junction="True" old_x="100.0" old_y="600.0" type="priority" weight_num="4.0" weight_sum="0.0" x="5.8604477383" x_displacement_sum="-94.1395522617" y="558.160198995" y_displacement_sum="-41.8398010052" />
    <node avg_slowdown_ratio="0.0" id="node_01x07" junction="True" old_x="100.0" old_y="700.0" type="priority" weight_num="4.0" weight_sum="0.0" x="-5.333366746" x_displacement_sum="-105.333366746" y="664.888877751" y_displacement_sum="-35.1111222488" />
    <node avg_slowdown_ratio="0.0" id="node_01x08" junction="True" old_x="100.0" old_y="800.0" type="priority" weight_num="4.0" weight_sum="0.0" x="-14.762854321" x_displacement_sum="-114.762854321" y="774.497143484" y_displacement_sum="-25.5028565157" />
    <node avg_slowdown_ratio="0.0" id="node_01x09" junction="True" old_x="100.0" old_y="900.0" type="priority" weight_num="4.0" weight_sum="0.0" x="-21.118072638" x_displacement_sum="-121.118072638" y="886.542436374" y_displacement_sum="-13.4575636264" />
    <node avg_slowdown_ratio="0.0" id="node_01x10" junction="True" old_x="100.0" old_y="1000.0" type="priority" weight_num="4.0" weight_sum="0.0" x="-23.367908345" x_displacement_sum="-123.367908345" y="1000.0" y_displacement_sum="0.0" />
    <node avg_slowdown_ratio="0.0" id="node_01x11" junction="True" old_x="100.0" old_y="1100.0" type="priority" weight_num="4.0" weight_sum="0.0" x="-21.118072638" x_displacement_sum="-121.118072638" y="1113.45756363" y_displacement_sum="13.4575636264" />
    <node avg_slowdown_ratio="0.0" id="node_01x12" junction="True" old_x="100.0" old_y="1200.0" type="priority" weight_num="4.0" weight_sum="0.0" x="-14.762854321" x_displacement_sum="-114.762854321" y="1225.50285652" y_displacement_sum="25.5028565157" />
    <node avg_slowdown_ratio="0.0" id="node_01x13" junction="True" old_x="100.0" old_y="1300.0" type="priority" weight_num="4.0" weight_sum="0.0" x="-5.333366746" x_displacement_sum="-105.333366746" y="1335.11112225" y_displacement_sum="35.1111222488" />
    <node avg_slowdown_ratio="0.0" id="node_01x14" junction="True" old_x="100.0" old_y="1400.0" type="priority" weight_num="4.0" weight_sum="0.0" x="5.8604477383" x_displacement_sum="-94.1395522617" y="1441.83980101" y_displacement_sum="41.8398010052" />
    <node avg_slowdown_ratio="0.0" id="node_01x15" junction="True" old_x="100.0" old_y="1500.0" type="priority" weight_num="4.0" weight_sum="0.0" x="17.591704412" x_displacement_sum="-82.408295588" y="1545.78238644" y_displacement_sum="45.7823864378" />
    <node avg_slowdown_ratio="0.0" id="node_01x16" junction="True" old_x="100.0" old_y="1600.0" type="priority" weight_num="4.0" weight_sum="0.0" x="28.9357892265" x_displacement_sum="-71.0642107735" y="1647.37614052" y_displacement_sum="47.3761405157" />
    <node avg_slowdown_ratio="0.0" id="node_01x17" junction="True" old_x="100.0" old_y="1700.0" type="priority" weight_num="4.0" weight_sum="0.0" x="39.324313135" x_displacement_sum="-60.675686865" y="1747.1922009" y_displacement_sum="47.192200895" />
    <node avg_slowdown_ratio="0.0" id="node_01x18" junction="True" old_x="100.0" old_y="1800.0" type="priority" weight_num="4.0" weight_sum="0.0" x="48.4916395156" x_displacement_sum="-51.5083604844" y="1845.78520932" y_displacement_sum="45.7852093194" />
    <node avg_slowdown_ratio="0.0" id="node_01x19" junction="True" old_x="100.0" old_y="1900.0" type="priority" weight_num="4.0" weight_sum="0.0" x="56.3828577141" x_displacement_sum="-43.6171422859" y="1943.61714229" y_displacement_sum="43.6171422859" />
    <node avg_slowdown_ratio="0.0" id="node_01x20" junction="True" old_x="100.0" old_y="2000.0" type="priority" weight_num="3.0" weight_sum="0.0" x="63.0672311853" x_displacement_sum="-36.9327688147" y="2041.03640979" y_displacement_sum="41.0364097942" />
    <node avg_slowdown_ratio="0.0" id="node_02x00" junction="True" old_x="200.0" old_y="0.0" type="priority" weight_num="3.0" weight_sum="0.0" x="161.936262006" x_displacement_sum="-38.063737994" y="-47.5796724925" y_displacement_sum="-47.5796724925" />
    <node avg_slowdown_ratio="0.0" id="node_02x01" junction="True" old_x="200.0" old_y="100.0" type="priority" weight_num="4.0" weight_sum="0.0" x="154.214790681" x_displacement_sum="-45.7852093194" y="48.4916395156" y_displacement_sum="-51.5083604844" />
    <node avg_slowdown_ratio="0.0" id="node_02x02" junction="True" old_x="200.0" old_y="200.0" type="priority" weight_num="4.0" weight_sum="0.0" x="144.797054294" x_displacement_sum="-55.2029457056" y="144.797054294" y_displacement_sum="-55.2029457056" />
    <node avg_slowdown_ratio="0.0" id="node_02x03" junction="True" old_x="200.0" old_y="300.0" type="priority" weight_num="4.0" weight_sum="0.0" x="133.448240457" x_displacement_sum="-66.5517595428" y="241.7672104" y_displacement_sum="-58.2327895999" />
    <node avg_slowdown_ratio="0.0" id="node_02x04" junction="True" old_x="200.0" old_y="400.0" type="priority" weight_num="4.0" weight_sum="0.0" x="120.057595392" x_displacement_sum="-79.9424046078" y="340.043196544" y_displacement_sum="-59.9568034559" />
    <node avg_slowdown_ratio="0.0" id="node_02x05" junction="True" old_x="200.0" old_y="500.0" type="priority" weight_num="4.0" weight_sum="0.0" x="104.787888307" x_displacement_sum="-95.2121116932" y="440.492430192" y_displacement_sum="-59.5075698082" />
    <node avg_slowdown_ratio="0.0" id="node_02x06" junction="True" old_x="200.0" old_y="600.0" type="priority" weight_num="4.0" weight_sum="0.0" x="88.277093133" x_displacement_sum="-111.722906867" y="544.138546566" y_displacement_sum="-55.8614534337" />
    <node avg_slowdown_ratio="0.0" id="node_02x07" junction="True" old_x="200.0" old_y="700.0" type="priority" weight_num="4.0" weight_sum="0.0" x="71.828071987" x_displacement_sum="-128.171928013" y="651.935526995" y_displacement_sum="-48.0644730047" />
    <node avg_slowdown_ratio="0.0" id="node_02x08" junction="True" old_x="200.0" old_y="800.0" type="priority" weight_num="4.0" weight_sum="0.0" x="57.434698026" x_displacement_sum="-142.565301974" y="764.358674507" y_displacement_sum="-35.6413254935" />
    <node avg_slowdown_ratio="0.0" id="node_02x09" junction="True" old_x="200.0" old_y="900.0" type="priority" weight_num="4.0" weight_sum="0.0" x="47.451770185" x_displacement_sum="-152.548229815" y="880.931471273" y_displacement_sum="-19.0685287268" />
    <node avg_slowdown_ratio="0.0" id="node_02x10" junction="True" old_x="200.0" old_y="1000.0" type="priority" weight_num="4.0" weight_sum="0.0" x="43.862491" x_displacement_sum="-156.137509" y="1000.0" y_displacement_sum="0.0" />
    <node avg_slowdown_ratio="0.0" id="node_02x11" junction="True" old_x="200.0" old_y="1100.0" type="priority" weight_num="4.0" weight_sum="0.0" x="47.451770185" x_displacement_sum="-152.548229815" y="1119.06852873" y_displacement_sum="19.0685287268" />
    <node avg_slowdown_ratio="0.0" id="node_02x12" junction="True" old_x="200.0" old_y="1200.0" type="priority" weight_num="4.0" weight_sum="0.0" x="57.434698026" x_displacement_sum="-142.565301974" y="1235.64132549" y_displacement_sum="35.6413254935" />
    <node avg_slowdown_ratio="0.0" id="node_02x13" junction="True" old_x="200.0" old_y="1300.0" type="priority" weight_num="4.0" weight_sum="0.0" x="71.828071987" x_displacement_sum="-128.171928013" y="1348.064473" y_displacement_sum="48.0644730047" />
    <node avg_slowdown_ratio="0.0" id="node_02x14" junction="True" old_x="200.0" old_y="1400.0" type="priority" weight_num="4.0" weight_sum="0.0" x="88.277093133" x_displacement_sum="-111.722906867" y="1455.86145343" y_displacement_sum="55.8614534337" />
    <node avg_slowdown_ratio="0.0" id="node_02x15" junction="True" old_x="200.0" old_y="1500.0" type="priority" weight_num="4.0" weight_sum="0.0" x="104.787888307" x_displacement_sum="-95.2121116932" y="1559.50756981" y_displacement_sum="59.5075698082" />
    <node avg_slowdown_ratio="0.0" id="node_02x16" junction="True" old_x="200.0" old_y="1600.0" type="priority" weight_num="4.0" weight_sum="0.0" x="120.057595392" x_displacement_sum="-79.9424046078" y="1659.95680346" y_displacement_sum="59.9568034559" />
    <node avg_slowdown_ratio="0.0" id="node_02x17" junction="True" old_x="200.0" old_y="1700.0" type="priority" weight_num="4.0" weight_sum="0.0" x="133.448240457" x_displacement_sum="-66.5517595428" y="1758.2327896" y_displacement_sum="58.2327895999" />
    <node avg_slowdown_ratio="0.0" id="node_02x18" junction="True" old_x="200.0" old_y="1800.0" type="priority" weight_num="4.0" weight_sum="0.0" x="144.797054294" x_displacement_sum="-55.2029457056" y="1855.20294571" y_displacement_sum="55.2029457056" />
    <node avg_slowdown_ratio="0.0" id="node_02x19" junction="True" old_x="200.0" old_y="1900.0" type="priority" weight_num="4.0" weight_sum="0.0" x="154.214790681" x_displacement_sum="-45.7852093194" y="1951.50836048" y_displacement_sum="51.5083604844" />
    <node avg_slowdown_ratio="0.0" id="node_02x20" junction="True" old_x="200.0" old_y="2000.0" type="priority" weight_num="3.0" weight_sum="0.0" x="161.936262006" x_displacement_sum="-38.063737994" y="2047.57967249" y_displacement_sum="47.5796724925" />
    <node avg_slowdown_ratio="0.0" id="node_03x00" junction="True" old_x="300.0" old_y="0.0" type="priority" weight_num="3.0" weight_sum="0.0" x="261.540303053" x_displacement_sum="-38.4596969467" y="-54.9424242096" y_displacement_sum="-54.9424242096" />
    <node avg_slowdown_ratio="0.0" id="node_03x01" junction="True" old_x="300.0" old_y="100.0" type="priority" weight_num="4.0" weight_sum="0.0" x="252.807799105" x_displacement_sum="-47.192200895" y="39.324313135" y_displacement_sum="-60.675686865" />
    <node avg_slowdown_ratio="0.0" id="node_03x02" junction="True" old_x="300.0" old_y="200.0" type="priority" weight_num="4.0" weight_sum="0.0" x="241.7672104" x_displacement_sum="-58.2327895999" y="133.448240457" y_displacement_sum="-66.5517595428" />
    <node avg_slowdown_ratio="0.0" id="node_03x03" junction="True" old_x="300.0" old_y="300.0" type="priority" weight_num="4.0" weight_sum="0.0" x="227.898193364" x_displacement_sum="-72.1018066359" y="227.898193364" y_displacement_sum="-72.1018066359" />
    <node avg_slowdown_ratio="0.0" id="node_03x04" junction="True" old_x="300.0" old_y="400.0" type="priority" weight_num="4.0" weight_sum="0.0" x="210.740002195" x_displacement_sum="-89.2599978051" y="323.491430453" y_displacement_sum="-76.5085695472" />
    <node avg_slowdown_ratio="0.0" id="node_03x05" junction="True" old_x="300.0" old_y="500.0" type="priority" weight_num="4.0" weight_sum="0.0" x="190.115185138" x_displacement_sum="-109.884814862" y="421.510846527" y_displacement_sum="-78.4891534727" />
    <node avg_slowdown_ratio="0.0" id="node_03x06" junction="True" old_x="300.0" old_y="600.0" type="priority" weight_num="4.0" weight_sum="0.0" x="166.520298912" x_displacement_sum="-133.479701088" y="523.725885093" y_displacement_sum="-76.2741149074" />
    <node avg_slowdown_ratio="0.0" id="node_03x07" junction="True" old_x="300.0" old_y="700.0" type="priority" weight_num="4.0" weight_sum="0.0" x="141.640810597" x_displacement_sum="-158.359189403" y="632.13177597" y_displacement_sum="-67.8682240299" />
    <node avg_slowdown_ratio="0.0" id="node_03x08" junction="True" old_x="300.0" old_y="800.0" type="priority" weight_num="4.0" weight_sum="0.0" x="118.710998909" x_displacement_sum="-181.289001091" y="748.203142545" y_displacement_sum="-51.7968574545" />
    <node avg_slowdown_ratio="0.0" id="node_03x09" junction="True" old_x="300.0" old_y="900.0" type="priority" weight_num="4.0" weight_sum="0.0" x="102.152642591" x_displacement_sum="-197.847357409" y="871.736091799" y_displacement_sum="-28.2639082013" />
    <node avg_slowdown_ratio="0.0" id="node_03x10" junction="True" old_x="300.0" old_y="1000.0" type="priority" weight_num="4.0" weight_sum="0.0" x="96.065294368" x_displacement_sum="-203.934705632" y="1000.0" y_displacement_sum="0.0" />
    <node avg_slowdown_ratio="0.0" id="node_03x11" junction="True" old_x="300.0" old_y="1100.0" type="priority" weight_num="4.0" weight_sum="0.0" x="102.152642591" x_displacement_sum="-197.847357409" y="1128.2639082" y_displacement_sum="28.2639082013" />
    <node avg_slowdown_ratio="0.0" id="node_03x12" junction="True" old_x="300.0" old_y="1200.0" type="priority" weight_num="4.0" weight_sum="0.0" x="118.710998909" x_displacement_sum="-181.289001091" y="1251.79685745" y_displacement_sum="51.7968574545" />
    <node avg_slowdown_ratio="0.0" id="node_03x13" junction="True" old_x="300.0" old_y="1300.0" type="priority" weight_num="4.0" weight_sum="0.0" x="141.640810597" x_displacement_sum="-158.359189403" y="1367.86822403" y_displacement_sum="67.8682240299" />
    <node avg_slowdown_ratio="0.0" id="node_03x14" junction="True" old_x="300.0" old_y="1400.0" type="priority" weight_num="4.0" weight_sum="0.0" x="166.520298912" x_displacement_sum="-133.479701088" y="1476.27411491" y_displacement_sum="76.2741149074" />
    <node avg_slowdown_ratio="0.0" id="node_03x15" junction="True" old_x="300.0" old_y="1500.0" type="priority" weight_num="4.0" weight_sum="0.0" x="190.115185138" x_displacement_sum="-109.884814862" y="1578.48915347" y_displacement_sum="78.4891534727" />
    <node avg_slowdown_ratio="0.0" id="node_03x16" junction="True" old_x="300.0" old_y="1600.0" type="priority" weight_num="4.0" weight_sum="0.0" x="210.740002195" x_displacement_sum="-89.2599978051" y="1676.50856955" y_displacement_sum="76.5085695472" />
    <node avg_slowdown_ratio="0.0" id="node_03x17" junction="True" old_x="300.0" old_y="1700.0" type="priority" weight_num="4.0" weight_sum="0.0" x="227.898193364" x_displacement_sum="-72.1018066359" y="1772.10180664" y_displacement_sum="72.1018066359" />
    <node avg_slowdown_ratio="0.0" id="node_03x18" junction="True" old_x="300.0" old_y="1800.0" type="priority" weight_num="4.0" weight_sum="0.0" x="241.7672104" x_displacement_sum="-58.2327895999" y="1866.55175954" y_displacement_sum="66.5517595428" />
    <node avg_slowdown_ratio="0.0" id="node_03x19" junction="True" old_x="300.0" old_y="1900.0" type="priority" weight_num="4.0" weight_sum="0.0" x="252.807799105" x_displacement_sum="-47.192200895" y="1960.67568686" y_displacement_sum="60.675686865" />
    <node avg_slowdown_ratio="0.0" id="node_03x20" junction="True" old_x="300.0" old_y="2000.0" type="priority" weight_num="3.0" weight_sum="0.0" x="261.540303053" x_displacement_sum="-38.4596969467" y="2054.94242421" y_displacement_sum="54.9424242096" />
    <node avg_slowdown_ratio="0.0" id="node_04x00" junction="True" old_x="400.0" old_y="0.0" type="priority" weight_num="3.0" weight_sum="0.0" x="362.19666558" x_displacement_sum="-37.8033344204" y="-63.0055573673" y_displacement_sum="-63.0055573673" />
    <node avg_slowdown_ratio="0.0" id="node_04x01" junction="True" old_x="400.0" old_y="100.0" type="priority" weight_num="4.0" weight_sum="0.0" x="352.623859484" x_displacement_sum="-47.3761405157" y="28.9357892265" y_displacement_sum="-71.0642107735" />
    <node avg_slowdown_ratio="0.0" id="node_04x02" junction="True" old_x="400.0" old_y="200.0" type="priority" weight_num="4.0" weight_sum="0.0" x="340.043196544" x_displacement_sum="-59.9568034559" y="120.057595392" y_displacement_sum="-79.9424046078" />
    <node avg_slowdown_ratio="0.0" id="node_04x03" junction="True" old_x="400.0" old_y="300.0" type="priority" weight_num="4.0" weight_sum="0.0" x="323.491430453" x_displacement_sum="-76.5085695472" y="210.740002195" y_displacement_sum="-89.2599978051" />
    <node avg_slowdown_ratio="0.0" id="node_04x04" junction="True" old_x="400.0" old_y="400.0" type="priority" weight_num="4.0" weight_sum="0.0" x="301.861429857" x_displacement_sum="-98.1385701433" y="301.861429857" y_displacement_sum="-98.1385701433" />
    <node avg_slowdown_ratio="0.0" id="node_04x05" junction="True" old_x="400.0" old_y="500.0" type="priority" weight_num="4.0" weight_sum="0.0" x="274.152753357" x_displacement_sum="-125.847246643" y="395.127294464" y_displacement_sum="-104.872705536" />
    <node avg_slowdown_ratio="0.0" id="node_04x06" junction="True" old_x="400.0" old_y="600.0" type="priority" weight_num="4.0" weight_sum="0.0" x="240.10552576" x_displacement_sum="-159.89447424" y="493.40368384" y_displacement_sum="-106.59631616" />
    <node avg_slowdown_ratio="0.0" id="node_04x07" junction="True" old_x="400.0" old_y="700.0" type="priority" weight_num="4.0" weight_sum="0.0" x="201.381498902" x_displacement_sum="-198.618501098" y="600.690749451" y_displacement_sum="-99.3092505488" />
    <node avg_slowdown_ratio="0.0" id="node_04x08" junction="True" old_x="400.0" old_y="800.0" type="priority" weight_num="4.0" weight_sum="0.0" x="162.99992482" x_displacement_sum="-237.00007518" y="720.99997494" y_displacement_sum="-79.0000250598" />
    <node avg_slowdown_ratio="0.0" id="node_04x09" junction="True" old_x="400.0" old_y="900.0" type="priority" weight_num="4.0" weight_sum="0.0" x="133.598979183" x_displacement_sum="-266.401020817" y="855.599829864" y_displacement_sum="-44.4001701361" />
    <node avg_slowdown_ratio="0.0" id="node_04x10" junction="True" old_x="400.0" old_y="1000.0" type="priority" weight_num="4.0" weight_sum="0.0" x="122.422206223" x_displacement_sum="-277.577793777" y="1000.0" y_displacement_sum="0.0" />
    <node avg_slowdown_ratio="0.0" id="node_04x11" junction="True" old_x="400.0" old_y="1100.0" type="priority" weight_num="4.0" weight_sum="0.0" x="133.598979183" x_displacement_sum="-266.401020817" y="1144.40017014" y_displacement_sum="44.4001701361" />
    <node avg_slowdown_ratio="0.0" id="node_04x12" junction="True" old_x="400.0" old_y="1200.0" type="priority" weight_num="4.0" weight_sum="0.0" x="162.99992482" x_displacement_sum="-237.00007518" y="1279.00002506" y_displacement_sum="79.0000250598" />
    <node avg_slowdown_ratio="0.0" id="node_04x13" junction="True" old_x="400.0" old_y="1300.0" type="priority" weight_num="4.0" weight_sum="0.0" x="201.381498902" x_displacement_sum="-198.618501098" y="1399.30925055" y_displacement_sum="99.3092505488" />
    <node avg_slowdown_ratio="0.0" id="node_04x14" junction="True" old_x="400.0" old_y="1400.0" type="priority" weight_num="4.0" weight_sum="0.0" x="240.10552576" x_displacement_sum="-159.89447424" y="1506.59631616" y_displacement_sum="106.59631616" />
    <node avg_slowdown_ratio="0.0" id="node_04x15" junction="True" old_x="400.0" old_y="1500.0" type="priority" weight_num="4.0" weight_sum="0.0" x="274.152753357" x_displacement_sum="-125.847246643" y="1604.87270554" y_displacement_sum="104.872705536" />
    <node avg_slowdown_ratio="0.0" id="node_04x16" junction="True" old_x="400.0" old_y="1600.0" type="priority" weight_num="4.0" weight_sum="0.0" x="301.861429857" x_displacement_sum="-98.1385701433" y="1698.13857014" y_displacement_sum="98.1385701433" />
    <node avg_slowdown_ratio="0.0" id="node_04x17" junction="True" old_x="400.0" old_y="1700.0" type="priority" weight_num="4.0" weight_sum="0.0" x="323.491430453" x_displacement_sum="-76.5085695472" y="1789.25999781" y_displacement_sum="89.2599978051" />
    <node avg_slowdown_ratio="0.0" id="node_04x18" junction="True" old_x="400.0" old_y="1800.0" type="priority" weight_num="4.0" weight_sum="0.0" x="340.043196544" x_displacement_sum="-59.9568034559" y="1879.94240461" y_displacement_sum="79.9424046078" />
    <node avg_slowdown_ratio="0.0" id="node_04x19" junction="True" old_x="400.0" old_y="1900.0" type="priority" weight_num="4.0" weight_sum="0.0" x="352.623859484" x_displacement_sum="-47.3761405157" y="1971.06421077" y_displacement_sum="71.0642107735" />
    <node avg_slowdown_ratio="0.0" id="node_04x20" junction="True" old_x="400.0" old_y="2000.0" type="priority" weight_num="3.0" weight_sum="0.0" x="362.19666558" x_displacement_sum="-37.8033344204" y="2063.00555737" y_displacement_sum="63.0055573673" />
    <node avg_slowdown_ratio="0.0" id="node_05x00" junction="True" old_x="500.0" old_y="0.0" type="priority" weight_num="3.0" weight_sum="0.0" x="464.248669802" x_displacement_sum="-35.7513301976" y="-71.5026603952" y_displacement_sum="-71.5026603952" />
    <node avg_slowdown_ratio="0.0" id="node_05x01" junction="True" old_x="500.0" old_y="100.0" type="priority" weight_num="4.0" weight_sum="0.0" x="454.217613562" x_displacement_sum="-45.7823864378" y="17.591704412" y_displacement_sum="-82.408295588" />
    <node avg_slowdown_ratio="0.0" id="node_05x02" junction="True" old_x="500.0" old_y="200.0" type="priority" weight_num="4.0" weight_sum="0.0" x="440.492430192" x_displacement_sum="-59.5075698082" y="104.787888307" y_displacement_sum="-95.2121116932" />
    <node avg_slowdown_ratio="0.0" id="node_05x03" junction="True" old_x="500.0" old_y="300.0" type="priority" weight_num="4.0" weight_sum="0.0" x="421.510846527" x_displacement_sum="-78.4891534727" y="190.115185138" y_displacement_sum="-109.884814862" />
    <node avg_slowdown_ratio="0.0" id="node_05x04" junction="True" old_x="500.0" old_y="400.0" type="priority" weight_num="4.0" weight_sum="0.0" x="395.127294464" x_displacement_sum="-104.872705536" y="274.152753357" y_displacement_sum="-125.847246643" />
    <node avg_slowdown_ratio="0.0" id="node_05x05" junction="True" old_x="500.0" old_y="500.0" type="priority" weight_num="4.0" weight_sum="0.0" x="358.680458994" x_displacement_sum="-141.319541006" y="358.680458994" y_displacement_sum="-141.319541006" />
    <node avg_slowdown_ratio="0.0" id="node_05x06" junction="True" old_x="500.0" old_y="600.0" type="priority" weight_num="4.0" weight_sum="0.0" x="309.68131003" x_displacement_sum="-190.31868997" y="447.745048024" y_displacement_sum="-152.254951976" />
    <node avg_slowdown_ratio="0.0" id="node_05x07" junction="True" old_x="500.0" old_y="700.0" type="priority" weight_num="4.0" weight_sum="0.0" x="247.977770531" x_displacement_sum="-252.022229469" y="548.786662318" y_displacement_sum="-151.213337682" />
    <node avg_slowdown_ratio="0.0" id="node_05x08" junction="True" old_x="500.0" old_y="800.0" type="priority" weight_num="4.0" weight_sum="0.0" x="180.066123743" x_displacement_sum="-319.933876257" y="672.026449497" y_displacement_sum="-127.973550503" />
    <node avg_slowdown_ratio="0.0" id="node_05x09" junction="True" old_x="500.0" old_y="900.0" type="priority" weight_num="4.0" weight_sum="0.0" x="123.125109968" x_displacement_sum="-376.874890032" y="824.625021994" y_displacement_sum="-75.3749780065" />
    <node avg_slowdown_ratio="0.0" id="node_05x10" junction="True" old_x="500.0" old_y="1000.0" type="priority" weight_num="4.0" weight_sum="0.0" x="100.287976961" x_displacement_sum="-399.712023039" y="1000.0" y_displacement_sum="0.0" />