<additional>
    <edgeData id="all" file=".\..\3_dump\test.dump.xml" excludeEmpty="false"/>
</additional>
