<?xml version='1.0' encoding='UTF-8'?>
<nodes xmlns:xsi="http://www.w3.org/2001/XMLSchema-instance" version="0.27" xsi:noNamespaceSchemaLocation="http://sumo.dlr.de/xsd/edges_file.xsd"><node avg_slowdown_ratio="0.65316774658" id="node_13x11" type="right_before_left" weight_num="4.0" weight_sum="2.61267098632" x="1300.00" y="1100.00" />
    <node avg_slowdown_ratio="0.643448524117" id="node_08x10" type="right_before_left" weight_num="4.0" weight_sum="2.57379409647" x="800.00" y="1000.00" />
    <node avg_slowdown_ratio="0.630669546432" id="node_10x11" type="right_before_left" weight_num="4.0" weight_sum="2.52267818573" x="1000.00" y="1100.00" />
    <node avg_slowdown_ratio="0.612131029517" id="node_09x08" type="right_before_left" weight_num="4.0" weight_sum="2.44852411807" x="900.00" y="800.00" />
    <node avg_slowdown_ratio="0.611951043917" id="node_10x08" type="right_before_left" weight_num="4.0" weight_sum="2.44780417567" x="1000.00" y="800.00" />
    <node avg_slowdown_ratio="0.611411087113" id="node_10x10" type="right_before_left" weight_num="4.0" weight_sum="2.44564434845" x="1000.00" y="1000.00" />
    <node avg_slowdown_ratio="0.609071274297" id="node_10x13" type="right_before_left" weight_num="4.0" weight_sum="2.43628509719" x="1000.00" y="1300.00" />
    <node avg_slowdown_ratio="0.605831533475" id="node_08x11" type="right_before_left" weight_num="4.0" weight_sum="2.4233261339" x="800.00" y="1100.00" />
    <node avg_slowdown_ratio="0.604391648667" id="node_10x06" type="right_before_left" weight_num="4.0" weight_sum="2.41756659467" x="1000.00" y="600.00" />
    <node avg_slowdown_ratio="0.597912167028" id="node_10x09" type="right_before_left" weight_num="4.0" weight_sum="2.39164866811" x="1000.00" y="900.00" />
    <node avg_slowdown_ratio="0.59701223902" id="node_12x09" type="right_before_left" weight_num="4.0" weight_sum="2.38804895608" x="1200.00" y="900.00" />
    <node avg_slowdown_ratio="0.592512598992" id="node_11x08" type="right_before_left" weight_num="4.0" weight_sum="2.37005039597" x="1100.00" y="800.00" />
    <node avg_slowdown_ratio="0.59233261339" id="node_10x12" type="right_before_left" weight_num="4.0" weight_sum="2.36933045356" x="1000.00" y="1200.00" />
    <node avg_slowdown_ratio="0.591072714182" id="node_11x12" type="right_before_left" weight_num="4.0" weight_sum="2.36429085673" x="1100.00" y="1200.00" />
    <node avg_slowdown_ratio="0.58891288697" id="node_09x09" type="right_before_left" weight_num="4.0" weight_sum="2.35565154788" x="900.00" y="900.00" />
    <node avg_slowdown_ratio="0.58603311735" id="node_08x08" type="right_before_left" weight_num="4.0" weight_sum="2.3441324694" x="800.00" y="800.00" />
    <node avg_slowdown_ratio="0.584953203745" id="node_12x10" type="right_before_left" weight_num="4.0" weight_sum="2.33981281498" x="1200.00" y="1000.00" />
    <node avg_slowdown_ratio="0.580273578115" id="node_12x08" type="right_before_left" weight_num="4.0" weight_sum="2.32109431246" x="1200.00" y="800.00" />
    <node avg_slowdown_ratio="0.57667386609" id="node_12x12" type="right_before_left" weight_num="4.0" weight_sum="2.30669546436" x="1200.00" y="1200.00" />
    <node avg_slowdown_ratio="0.575413966885" id="node_09x11" type="right_before_left" weight_num="4.0" weight_sum="2.30165586754" x="900.00" y="1100.00" />
    <node avg_slowdown_ratio="0.57325413967" id="node_07x11" type="right_before_left" weight_num="4.0" weight_sum="2.29301655868" x="700.00" y="1100.00" />
    <node avg_slowdown_ratio="0.572894168465" id="node_08x07" type="right_before_left" weight_num="4.0" weight_sum="2.29157667386" x="800.00" y="700.00" />
    <node avg_slowdown_ratio="0.57181425486" id="node_12x11" type="right_before_left" weight_num="4.0" weight_sum="2.28725701944" x="1200.00" y="1100.00" />
    <node avg_slowdown_ratio="0.570194384448" id="node_07x12" type="right_before_left" weight_num="4.0" weight_sum="2.28077753779" x="700.00" y="1200.00" />
    <node avg_slowdown_ratio="0.56857451404" id="node_13x10" type="right_before_left" weight_num="4.0" weight_sum="2.27429805616" x="1300.00" y="1000.00" />
    <node avg_slowdown_ratio="0.568394528438" id="node_09x10" type="right_before_left" weight_num="4.0" weight_sum="2.27357811375" x="900.00" y="1000.00" />
    <node avg_slowdown_ratio="0.56749460043" id="node_12x13" type="right_before_left" weight_num="4.0" weight_sum="2.26997840172" x="1200.00" y="1300.00" />
    <node avg_slowdown_ratio="0.566054715622" id="node_07x08" type="right_before_left" weight_num="4.0" weight_sum="2.26421886249" x="700.00" y="800.00" />
    <node avg_slowdown_ratio="0.562275018" id="node_13x06" type="right_before_left" weight_num="4.0" weight_sum="2.249100072" x="1300.00" y="600.00" />
    <node avg_slowdown_ratio="0.562275017998" id="node_11x10" type="right_before_left" weight_num="4.0" weight_sum="2.24910007199" x="1100.00" y="1000.00" />
    <node avg_slowdown_ratio="0.561015118792" id="node_11x13" type="right_before_left" weight_num="4.0" weight_sum="2.24406047517" x="1100.00" y="1300.00" />
    <node avg_slowdown_ratio="0.56101511879" id="node_14x09" type="right_before_left" weight_num="4.0" weight_sum="2.24406047516" x="1400.00" y="900.00" />
    <node avg_slowdown_ratio="0.556875449963" id="node_13x12" type="right_before_left" weight_num="4.0" weight_sum="2.22750179985" x="1300.00" y="1200.00" />
    <node avg_slowdown_ratio="0.55633549316" id="node_08x13" type="right_before_left" weight_num="4.0" weight_sum="2.22534197264" x="800.00" y="1300.00" />
    <node avg_slowdown_ratio="0.552915766737" id="node_08x12" type="right_before_left" weight_num="4.0" weight_sum="2.21166306695" x="800.00" y="1200.00" />
    <node avg_slowdown_ratio="0.552375809935" id="node_10x07" type="right_before_left" weight_num="4.0" weight_sum="2.20950323974" x="1000.00" y="700.00" />
    <node avg_slowdown_ratio="0.552195824335" id="node_08x09" type="right_before_left" weight_num="4.0" weight_sum="2.20878329734" x="800.00" y="900.00" />
    <node avg_slowdown_ratio="0.550935925128" id="node_13x13" type="right_before_left" weight_num="4.0" weight_sum="2.20374370051" x="1300.00" y="1300.00" />
    <node avg_slowdown_ratio="0.550935925125" id="node_07x14" type="right_before_left" weight_num="4.0" weight_sum="2.2037437005" x="700.00" y="1400.00" />
    <node avg_slowdown_ratio="0.54823614111" id="node_13x14" type="right_before_left" weight_num="4.0" weight_sum="2.19294456444" x="1300.00" y="1400.00" />
    <node avg_slowdown_ratio="0.546076313892" id="node_14x08" type="right_before_left" weight_num="4.0" weight_sum="2.18430525557" x="1400.00" y="800.00" />
    <node avg_slowdown_ratio="0.545536357093" id="node_08x14" type="right_before_left" weight_num="4.0" weight_sum="2.18214542837" x="800.00" y="1400.00" />
    <node avg_slowdown_ratio="0.544276457885" id="node_05x09" type="right_before_left" weight_num="4.0" weight_sum="2.17710583154" x="500.00" y="900.00" />
    <node avg_slowdown_ratio="0.544096472283" id="node_11x14" type="right_before_left" weight_num="4.0" weight_sum="2.17638588913" x="1100.00" y="1400.00" />
    <node avg_slowdown_ratio="0.54211663067" id="node_06x11" type="right_before_left" weight_num="4.0" weight_sum="2.16846652268" x="600.00" y="1100.00" />
    <node avg_slowdown_ratio="0.541216702665" id="node_05x11" type="right_before_left" weight_num="4.0" weight_sum="2.16486681066" x="500.00" y="1100.00" />
    <node avg_slowdown_ratio="0.541036717063" id="node_09x14" type="right_before_left" weight_num="4.0" weight_sum="2.16414686825" x="900.00" y="1400.00" />
    <node avg_slowdown_ratio="0.54103671706" id="node_13x09" type="right_before_left" weight_num="4.0" weight_sum="2.16414686824" x="1300.00" y="900.00" />
    <node avg_slowdown_ratio="0.54049676026" id="node_11x09" type="right_before_left" weight_num="4.0" weight_sum="2.16198704104" x="1100.00" y="900.00" />
    <node avg_slowdown_ratio="0.53923686105" id="node_12x07" type="right_before_left" weight_num="4.0" weight_sum="2.1569474442" x="1200.00" y="700.00" />
    <node avg_slowdown_ratio="0.537796976243" id="node_07x13" type="right_before_left" weight_num="4.0" weight_sum="2.15118790497" x="700.00" y="1300.00" />
    <node avg_slowdown_ratio="0.537257019438" id="node_07x09" type="right_before_left" weight_num="4.0" weight_sum="2.14902807775" x="700.00" y="900.00" />
    <node avg_slowdown_ratio="0.536357091432" id="node_09x06" type="right_before_left" weight_num="4.0" weight_sum="2.14542836573" x="900.00" y="600.00" />
    <node avg_slowdown_ratio="0.533657307412" id="node_11x06" type="right_before_left" weight_num="4.0" weight_sum="2.13462922965" x="1100.00" y="600.00" />
    <node avg_slowdown_ratio="0.532217422605" id="node_08x15" type="right_before_left" weight_num="4.0" weight_sum="2.12886969042" x="800.00" y="1500.00" />
    <node avg_slowdown_ratio="0.532037437005" id="node_06x15" type="right_before_left" weight_num="4.0" weight_sum="2.12814974802" x="600.00" y="1500.00" />
    <node avg_slowdown_ratio="0.531857451407" id="node_06x08" type="right_before_left" weight_num="4.0" weight_sum="2.12742980563" x="600.00" y="800.00" />
    <node avg_slowdown_ratio="0.531857451405" id="node_11x07" type="right_before_left" weight_num="4.0" weight_sum="2.12742980562" x="1100.00" y="700.00" />
    <node avg_slowdown_ratio="0.531317494597" id="node_14x10" type="right_before_left" weight_num="4.0" weight_sum="2.12526997839" x="1400.00" y="1000.00" />
    <node avg_slowdown_ratio="0.530597552195" id="node_05x12" type="right_before_left" weight_num="4.0" weight_sum="2.12239020878" x="500.00" y="1200.00" />
    <node avg_slowdown_ratio="0.530237580995" id="node_09x12" type="right_before_left" weight_num="4.0" weight_sum="2.12095032398" x="900.00" y="1200.00" />
    <node avg_slowdown_ratio="0.528977681785" id="node_10x05" type="right_before_left" weight_num="4.0" weight_sum="2.11591072714" x="1000.00" y="500.00" />
    <node avg_slowdown_ratio="0.527897768178" id="node_09x07" type="right_before_left" weight_num="4.0" weight_sum="2.11159107271" x="900.00" y="700.00" />
    <node avg_slowdown_ratio="0.526817854575" id="node_12x06" type="right_before_left" weight_num="4.0" weight_sum="2.1072714183" x="1200.00" y="600.00" />
    <node avg_slowdown_ratio="0.526097912168" id="node_14x07" type="right_before_left" weight_num="4.0" weight_sum="2.10439164867" x="1400.00" y="700.00" />
    <node avg_slowdown_ratio="0.521058315335" id="node_13x08" type="right_before_left" weight_num="4.0" weight_sum="2.08423326134" x="1300.00" y="800.00" />
    <node avg_slowdown_ratio="0.52051835853" id="node_09x13" type="right_before_left" weight_num="4.0" weight_sum="2.08207343412" x="900.00" y="1300.00" />
    <node avg_slowdown_ratio="0.519258459325" id="node_06x09" type="right_before_left" weight_num="4.0" weight_sum="2.0770338373" x="600.00" y="900.00" />
    <node avg_slowdown_ratio="0.519258459323" id="node_08x06" type="right_before_left" weight_num="4.0" weight_sum="2.07703383729" x="800.00" y="600.00" />
    <node avg_slowdown_ratio="0.518538516917" id="node_05x08" type="right_before_left" weight_num="4.0" weight_sum="2.07415406767" x="500.00" y="800.00" />
    <node avg_slowdown_ratio="0.518178545715" id="node_13x07" type="right_before_left" weight_num="4.0" weight_sum="2.07271418286" x="1300.00" y="700.00" />
    <node avg_slowdown_ratio="0.517998560115" id="node_14x13" type="right_before_left" weight_num="4.0" weight_sum="2.07199424046" x="1400.00" y="1300.00" />
    <node avg_slowdown_ratio="0.517818574515" id="node_08x05" type="right_before_left" weight_num="4.0" weight_sum="2.07127429806" x="800.00" y="500.00" />
    <node avg_slowdown_ratio="0.517638588913" id="node_06x14" type="right_before_left" weight_num="4.0" weight_sum="2.07055435565" x="600.00" y="1400.00" />
    <node avg_slowdown_ratio="0.517458603313" id="node_15x11" type="right_before_left" weight_num="4.0" weight_sum="2.06983441325" x="1500.00" y="1100.00" />
    <node avg_slowdown_ratio="0.51385889129" id="node_07x10" type="right_before_left" weight_num="4.0" weight_sum="2.05543556516" x="700.00" y="1000.00" />
    <node avg_slowdown_ratio="0.513498920085" id="node_07x15" type="right_before_left" weight_num="4.0" weight_sum="2.05399568034" x="700.00" y="1500.00" />
    <node avg_slowdown_ratio="0.51223902088" id="node_13x15" type="right_before_left" weight_num="4.0" weight_sum="2.04895608352" x="1300.00" y="1500.00" />
    <node avg_slowdown_ratio="0.512239020877" id="node_14x12" type="right_before_left" weight_num="4.0" weight_sum="2.04895608351" x="1400.00" y="1200.00" />
    <node avg_slowdown_ratio="0.51205903528" id="node_11x11" type="right_before_left" weight_num="4.0" weight_sum="2.04823614112" x="1100.00" y="1100.00" />
    <node avg_slowdown_ratio="0.512059035277" id="node_10x15" type="right_before_left" weight_num="4.0" weight_sum="2.04823614111" x="1000.00" y="1500.00" />
    <node avg_slowdown_ratio="0.51097912167" id="node_14x11" type="right_before_left" weight_num="4.0" weight_sum="2.04391648668" x="1400.00" y="1100.00" />
    <node avg_slowdown_ratio="0.509899208062" id="node_05x14" type="right_before_left" weight_num="4.0" weight_sum="2.03959683225" x="500.00" y="1400.00" />
    <node avg_slowdown_ratio="0.509359251263" id="node_11x05" type="right_before_left" weight_num="4.0" weight_sum="2.03743700505" x="1100.00" y="500.00" />
    <node avg_slowdown_ratio="0.507919366453" id="node_09x05" type="right_before_left" weight_num="4.0" weight_sum="2.03167746581" x="900.00" y="500.00" />
    <node avg_slowdown_ratio="0.507199424045" id="node_15x09" type="right_before_left" weight_num="4.0" weight_sum="2.02879769618" x="1500.00" y="900.00" />
    <node avg_slowdown_ratio="0.507019438445" id="node_10x04" type="right_before_left" weight_num="4.0" weight_sum="2.02807775378" x="1000.00" y="400.00" />
    <node avg_slowdown_ratio="0.50449964003" id="node_05x13" type="right_before_left" weight_num="4.0" weight_sum="2.01799856012" x="500.00" y="1300.00" />
    <node avg_slowdown_ratio="0.503779697625" id="node_15x13" type="right_before_left" weight_num="4.0" weight_sum="2.0151187905" x="1500.00" y="1300.00" />
    <node avg_slowdown_ratio="0.50305975522" id="node_15x06" type="right_before_left" weight_num="4.0" weight_sum="2.01223902088" x="1500.00" y="600.00" />
    <node avg_slowdown_ratio="0.502699784018" id="node_15x08" type="right_before_left" weight_num="4.0" weight_sum="2.01079913607" x="1500.00" y="800.00" />
    <node avg_slowdown_ratio="0.4998200144" id="node_07x07" type="right_before_left" weight_num="4.0" weight_sum="1.9992800576" x="700.00" y="700.00" />
    <node avg_slowdown_ratio="0.49694024478" id="node_06x10" type="right_before_left" weight_num="4.0" weight_sum="1.98776097912" x="600.00" y="1000.00" />
    <node avg_slowdown_ratio="0.49676025918" id="node_14x14" type="right_before_left" weight_num="4.0" weight_sum="1.98704103672" x="1400.00" y="1400.00" />
    <node avg_slowdown_ratio="0.49550035997" id="node_06x13" type="right_before_left" weight_num="4.0" weight_sum="1.98200143988" x="600.00" y="1300.00" />
    <node avg_slowdown_ratio="0.492620590352" id="node_12x14" type="right_before_left" weight_num="4.0" weight_sum="1.97048236141" x="1200.00" y="1400.00" />
    <node avg_slowdown_ratio="0.492440604753" id="node_12x04" type="right_before_left" weight_num="4.0" weight_sum="1.96976241901" x="1200.00" y="400.00" />
    <node avg_slowdown_ratio="0.491180705545" id="node_04x11" type="right_before_left" weight_num="4.0" weight_sum="1.96472282218" x="400.00" y="1100.00" />
    <node avg_slowdown_ratio="0.491000719942" id="node_12x15" type="right_before_left" weight_num="4.0" weight_sum="1.96400287977" x="1200.00" y="1500.00" />
    <node avg_slowdown_ratio="0.488660907127" id="node_14x15" type="right_before_left" weight_num="4.0" weight_sum="1.95464362851" x="1400.00" y="1500.00" />
    <node avg_slowdown_ratio="0.487041036717" id="node_14x06" type="right_before_left" weight_num="4.0" weight_sum="1.94816414687" x="1400.00" y="600.00" />
    <node avg_slowdown_ratio="0.4845212383" id="node_15x10" type="right_before_left" weight_num="4.0" weight_sum="1.9380849532" x="1500.00" y="1000.00" />
    <node avg_slowdown_ratio="0.483621310295" id="node_05x15" type="right_before_left" weight_num="4.0" weight_sum="1.93448524118" x="500.00" y="1500.00" />
    <node avg_slowdown_ratio="0.483621310295" id="node_15x07" type="right_before_left" weight_num="4.0" weight_sum="1.93448524118" x="1500.00" y="700.00" />
    <node avg_slowdown_ratio="0.482361411085" id="node_10x14" type="right_before_left" weight_num="4.0" weight_sum="1.92944564434" x="1000.00" y="1400.00" />
    <node avg_slowdown_ratio="0.480741540678" id="node_09x04" type="right_before_left" weight_num="4.0" weight_sum="1.92296616271" x="900.00" y="400.00" />
    <node avg_slowdown_ratio="0.479121670268" id="node_05x07" type="right_before_left" weight_num="4.0" weight_sum="1.91648668107" x="500.00" y="700.00" />
    <node avg_slowdown_ratio="0.477501799855" id="node_09x15" type="right_before_left" weight_num="4.0" weight_sum="1.91000719942" x="900.00" y="1500.00" />
    <node avg_slowdown_ratio="0.477501799855" id="node_15x12" type="right_before_left" weight_num="4.0" weight_sum="1.91000719942" x="1500.00" y="1200.00" />
    <node avg_slowdown_ratio="0.477141828652" id="node_04x08" type="right_before_left" weight_num="4.0" weight_sum="1.90856731461" x="400.00" y="800.00" />
    <node avg_slowdown_ratio="0.474802015837" id="node_05x10" type="right_before_left" weight_num="4.0" weight_sum="1.89920806335" x="500.00" y="1000.00" />
    <node avg_slowdown_ratio="0.474082073435" id="node_11x15" type="right_before_left" weight_num="4.0" weight_sum="1.89632829374" x="1100.00" y="1500.00" />
    <node avg_slowdown_ratio="0.473902087832" id="node_06x12" type="right_before_left" weight_num="4.0" weight_sum="1.89560835133" x="600.00" y="1200.00" />
    <node avg_slowdown_ratio="0.467062634988" id="node_12x05" type="right_before_left" weight_num="4.0" weight_sum="1.86825053995" x="1200.00" y="500.00" />
    <node avg_slowdown_ratio="0.466342692582" id="node_13x05" type="right_before_left" weight_num="4.0" weight_sum="1.86537077033" x="1300.00" y="500.00" />
    <node avg_slowdown_ratio="0.46562275018" id="node_16x09" type="right_before_left" weight_num="4.0" weight_sum="1.86249100072" x="1600.00" y="900.00" />
    <node avg_slowdown_ratio="0.464902807775" id="node_08x04" type="right_before_left" weight_num="4.0" weight_sum="1.8596112311" x="800.00" y="400.00" />
    <node avg_slowdown_ratio="0.463642908568" id="node_11x04" type="right_before_left" weight_num="4.0" weight_sum="1.85457163427" x="1100.00" y="400.00" />
    <node avg_slowdown_ratio="0.461303095753" id="node_14x04" type="right_before_left" weight_num="4.0" weight_sum="1.84521238301" x="1400.00" y="400.00" />
    <node avg_slowdown_ratio="0.45950323974" id="node_16x06" type="right_before_left" weight_num="4.0" weight_sum="1.83801295896" x="1600.00" y="600.00" />
    <node avg_slowdown_ratio="0.458783297335" id="node_04x09" type="right_before_left" weight_num="4.0" weight_sum="1.83513318934" x="400.00" y="900.00" />
    <node avg_slowdown_ratio="0.458603311735" id="node_07x06" type="right_before_left" weight_num="4.0" weight_sum="1.83441324694" x="700.00" y="600.00" />
    <node avg_slowdown_ratio="0.456983441325" id="node_06x07" type="right_before_left" weight_num="4.0" weight_sum="1.8279337653" x="600.00" y="700.00" />
    <node avg_slowdown_ratio="0.45608351332" id="node_05x06" type="right_before_left" weight_num="4.0" weight_sum="1.82433405328" x="500.00" y="600.00" />
    <node avg_slowdown_ratio="0.456083513318" id="node_07x16" type="right_before_left" weight_num="4.0" weight_sum="1.82433405327" x="700.00" y="1600.00" />
    <node avg_slowdown_ratio="0.455003599712" id="node_07x05" type="right_before_left" weight_num="4.0" weight_sum="1.82001439885" x="700.00" y="500.00" />
    <node avg_slowdown_ratio="0.45482361411" id="node_16x08" type="right_before_left" weight_num="4.0" weight_sum="1.81929445644" x="1600.00" y="800.00" />
    <node avg_slowdown_ratio="0.45158387329" id="node_10x03" type="right_before_left" weight_num="4.0" weight_sum="1.80633549316" x="1000.00" y="300.00" />
    <node avg_slowdown_ratio="0.450143988482" id="node_16x12" type="right_before_left" weight_num="4.0" weight_sum="1.80057595393" x="1600.00" y="1200.00" />
    <node avg_slowdown_ratio="0.449964002877" id="node_08x17" type="right_before_left" weight_num="4.0" weight_sum="1.79985601151" x="800.00" y="1700.00" />
    <node avg_slowdown_ratio="0.446184305255" id="node_05x05" type="right_before_left" weight_num="4.0" weight_sum="1.78473722102" x="500.00" y="500.00" />
    <node avg_slowdown_ratio="0.446184305255" id="node_13x04" type="right_before_left" weight_num="4.0" weight_sum="1.78473722102" x="1300.00" y="400.00" />
    <node avg_slowdown_ratio="0.444564434845" id="node_04x07" type="right_before_left" weight_num="4.0" weight_sum="1.77825773938" x="400.00" y="700.00" />
    <node avg_slowdown_ratio="0.444024478043" id="node_14x05" type="right_before_left" weight_num="4.0" weight_sum="1.77609791217" x="1400.00" y="500.00" />
    <node avg_slowdown_ratio="0.440784737223" id="node_16x07" type="right_before_left" weight_num="4.0" weight_sum="1.76313894889" x="1600.00" y="700.00" />
    <node avg_slowdown_ratio="0.439344852412" id="node_03x09" type="right_before_left" weight_num="4.0" weight_sum="1.75737940965" x="300.00" y="900.00" />
    <node avg_slowdown_ratio="0.438084953203" id="node_12x16" type="right_before_left" weight_num="4.0" weight_sum="1.75233981281" x="1200.00" y="1600.00" />
    <node avg_slowdown_ratio="0.437005039597" id="node_04x12" type="right_before_left" weight_num="4.0" weight_sum="1.74802015839" x="400.00" y="1200.00" />
    <node avg_slowdown_ratio="0.436465082795" id="node_16x13" type="right_before_left" weight_num="4.0" weight_sum="1.74586033118" x="1600.00" y="1300.00" />
    <node avg_slowdown_ratio="0.43592512599" id="node_06x06" type="right_before_left" weight_num="4.0" weight_sum="1.74370050396" x="600.00" y="600.00" />
    <node avg_slowdown_ratio="0.434125269978" id="node_15x05" type="right_before_left" weight_num="4.0" weight_sum="1.73650107991" x="1500.00" y="500.00" />
    <node avg_slowdown_ratio="0.433585313175" id="node_04x10" type="right_before_left" weight_num="4.0" weight_sum="1.7343412527" x="400.00" y="1000.00" />
    <node avg_slowdown_ratio="0.433225341973" id="node_15x15" type="right_before_left" weight_num="4.0" weight_sum="1.73290136789" x="1500.00" y="1500.00" />
    <node avg_slowdown_ratio="0.43286537077" id="node_14x03" type="right_before_left" weight_num="4.0" weight_sum="1.73146148308" x="1400.00" y="300.00" />
    <node avg_slowdown_ratio="0.428725701945" id="node_10x16" type="right_before_left" weight_num="4.0" weight_sum="1.71490280778" x="1000.00" y="1600.00" />
    <node avg_slowdown_ratio="0.427645788337" id="node_11x16" type="right_before_left" weight_num="4.0" weight_sum="1.71058315335" x="1100.00" y="1600.00" />
    <node avg_slowdown_ratio="0.427285817135" id="node_16x10" type="right_before_left" weight_num="4.0" weight_sum="1.70914326854" x="1600.00" y="1000.00" />
    <node avg_slowdown_ratio="0.426745860333" id="node_16x11" type="right_before_left" weight_num="4.0" weight_sum="1.70698344133" x="1600.00" y="1100.00" />
    <node avg_slowdown_ratio="0.422966162707" id="node_17x07" type="right_before_left" weight_num="4.0" weight_sum="1.69186465083" x="1700.00" y="700.00" />
    <node avg_slowdown_ratio="0.420446364292" id="node_08x16" type="right_before_left" weight_num="4.0" weight_sum="1.68178545717" x="800.00" y="1600.00" />
    <node avg_slowdown_ratio="0.42026637869" id="node_07x17" type="right_before_left" weight_num="4.0" weight_sum="1.68106551476" x="700.00" y="1700.00" />
    <node avg_slowdown_ratio="0.419726421887" id="node_06x05" type="right_before_left" weight_num="4.0" weight_sum="1.67890568755" x="600.00" y="500.00" />
    <node avg_slowdown_ratio="0.419546436285" id="node_15x14" type="right_before_left" weight_num="4.0" weight_sum="1.67818574514" x="1500.00" y="1400.00" />
    <node avg_slowdown_ratio="0.41882649388" id="node_09x16" type="right_before_left" weight_num="4.0" weight_sum="1.67530597552" x="900.00" y="1600.00" />
    <node avg_slowdown_ratio="0.418646508277" id="node_15x04" type="right_before_left" weight_num="4.0" weight_sum="1.67458603311" x="1500.00" y="400.00" />
    <node avg_slowdown_ratio="0.418466522678" id="node_03x14" type="right_before_left" weight_num="4.0" weight_sum="1.67386609071" x="300.00" y="1400.00" />
    <node avg_slowdown_ratio="0.418286537078" id="node_04x14" type="right_before_left" weight_num="4.0" weight_sum="1.67314614831" x="400.00" y="1400.00" />
    <node avg_slowdown_ratio="0.415406767457" id="node_17x15" type="right_before_left" weight_num="4.0" weight_sum="1.66162706983" x="1700.00" y="1500.00" />
    <node avg_slowdown_ratio="0.415226781858" id="node_06x16" type="right_before_left" weight_num="4.0" weight_sum="1.66090712743" x="600.00" y="1600.00" />
    <node avg_slowdown_ratio="0.414866810655" id="node_17x08" type="right_before_left" weight_num="4.0" weight_sum="1.65946724262" x="1700.00" y="800.00" />
    <node avg_slowdown_ratio="0.413606911448" id="node_16x05" type="right_before_left" weight_num="4.0" weight_sum="1.65442764579" x="1600.00" y="500.00" />
    <node avg_slowdown_ratio="0.410187185025" id="node_17x12" type="right_before_left" weight_num="4.0" weight_sum="1.6407487401" x="1700.00" y="1200.00" />
    <node avg_slowdown_ratio="0.410007199425" id="node_04x06" type="right_before_left" weight_num="4.0" weight_sum="1.6400287977" x="400.00" y="600.00" />
    <node avg_slowdown_ratio="0.409827213822" id="node_11x03" type="right_before_left" weight_num="4.0" weight_sum="1.63930885529" x="1100.00" y="300.00" />
    <node avg_slowdown_ratio="0.40964722822" id="node_05x04" type="right_before_left" weight_num="4.0" weight_sum="1.63858891288" x="500.00" y="400.00" />
    <node avg_slowdown_ratio="0.40946724262" id="node_13x16" type="right_before_left" weight_num="4.0" weight_sum="1.63786897048" x="1300.00" y="1600.00" />
    <node avg_slowdown_ratio="0.409107271417" id="node_17x09" type="right_before_left" weight_num="4.0" weight_sum="1.63642908567" x="1700.00" y="900.00" />
    <node avg_slowdown_ratio="0.408027357812" id="node_13x03" type="right_before_left" weight_num="4.0" weight_sum="1.63210943125" x="1300.00" y="300.00" />
    <node avg_slowdown_ratio="0.406947444205" id="node_03x12" type="right_before_left" weight_num="4.0" weight_sum="1.62778977682" x="300.00" y="1200.00" />
    <node avg_slowdown_ratio="0.406947444203" id="node_03x08" type="right_before_left" weight_num="4.0" weight_sum="1.62778977681" x="300.00" y="800.00" />
    <node avg_slowdown_ratio="0.4060475162" id="node_05x16" type="right_before_left" weight_num="4.0" weight_sum="1.6241900648" x="500.00" y="1600.00" />
    <node avg_slowdown_ratio="0.40460763139" id="node_03x07" type="right_before_left" weight_num="4.0" weight_sum="1.61843052556" x="300.00" y="700.00" />
    <node avg_slowdown_ratio="0.404247660188" id="node_15x16" type="right_before_left" weight_num="4.0" weight_sum="1.61699064075" x="1500.00" y="1600.00" />
    <node avg_slowdown_ratio="0.40316774658" id="node_09x17" type="right_before_left" weight_num="4.0" weight_sum="1.61267098632" x="900.00" y="1700.00" />
    <node avg_slowdown_ratio="0.40298776098" id="node_03x11" type="right_before_left" weight_num="4.0" weight_sum="1.61195104392" x="300.00" y="1100.00" />
    <node avg_slowdown_ratio="0.402447804175" id="node_12x03" type="right_before_left" weight_num="4.0" weight_sum="1.6097912167" x="1200.00" y="300.00" />
    <node avg_slowdown_ratio="0.401907847373" id="node_14x16" type="right_before_left" weight_num="4.0" weight_sum="1.60763138949" x="1400.00" y="1600.00" />
    <node avg_slowdown_ratio="0.40010799136" id="node_06x04" type="right_before_left" weight_num="4.0" weight_sum="1.60043196544" x="600.00" y="400.00" />
    <node avg_slowdown_ratio="0.399028077755" id="node_07x04" type="right_before_left" weight_num="4.0" weight_sum="1.59611231102" x="700.00" y="400.00" />
    <node avg_slowdown_ratio="0.398848092153" id="node_17x14" type="right_before_left" weight_num="4.0" weight_sum="1.59539236861" x="1700.00" y="1400.00" />
    <node avg_slowdown_ratio="0.398668106553" id="node_08x03" type="right_before_left" weight_num="4.0" weight_sum="1.59467242621" x="800.00" y="300.00" />
    <node avg_slowdown_ratio="0.397408207345" id="node_18x09" type="right_before_left" weight_num="4.0" weight_sum="1.58963282938" x="1800.00" y="900.00" />
    <node avg_slowdown_ratio="0.39524838013" id="node_03x10" type="right_before_left" weight_num="4.0" weight_sum="1.58099352052" x="300.00" y="1000.00" />
    <node avg_slowdown_ratio="0.39524838013" id="node_16x15" type="right_before_left" weight_num="4.0" weight_sum="1.58099352052" x="1600.00" y="1500.00" />
    <node avg_slowdown_ratio="0.393988480922" id="node_16x04" type="right_before_left" weight_num="4.0" weight_sum="1.57595392369" x="1600.00" y="400.00" />
    <node avg_slowdown_ratio="0.393808495323" id="node_09x01" type="right_before_left" weight_num="4.0" weight_sum="1.57523398129" x="900.00" y="100.00" />
    <node avg_slowdown_ratio="0.39380849532" id="node_04x15" type="right_before_left" weight_num="4.0" weight_sum="1.57523398128" x="400.00" y="1500.00" />
    <node avg_slowdown_ratio="0.393088552918" id="node_12x17" type="right_before_left" weight_num="4.0" weight_sum="1.57235421167" x="1200.00" y="1700.00" />
    <node avg_slowdown_ratio="0.393088552915" id="node_17x06" type="right_before_left" weight_num="4.0" weight_sum="1.57235421166" x="1700.00" y="600.00" />
    <node avg_slowdown_ratio="0.39218862491" id="node_11x17" type="right_before_left" weight_num="4.0" weight_sum="1.56875449964" x="1100.00" y="1700.00" />