<?xml version="1.0" encoding="UTF-8"?>

<!-- generated on 12/01/16 15:26:24 by SUMO netconvert Version 0.27.1
<?xml version="1.0" encoding="UTF-8"?>

<configuration xmlns:xsi="http://www.w3.org/2001/XMLSchema-instance" xsi:noNamespaceSchemaLocation="http://sumo.dlr.de/xsd/netconvertConfiguration.xsd">

    <input>
        <node-files value="C:\Users\zs633\Capstone\2_spring_network\test_random\8_processed\graphviz.nod.xml"/>
        <edge-files value="C:\Users\zs633\Capstone\2_spring_network\test_random\8_processed\graphviz.edg.xml"/>
        <connection-files value="C:\Users\zs633\Capstone\2_spring_network\test_random\8_processed\graphviz.con.xml"/>
        <tllogic-files value="C:\Users\zs633\Capstone\2_spring_network\test_random\8_processed\graphviz.tll.xml"/>
    </input>

    <output>
        <output-file value="C:\Users\zs633\Capstone\2_spring_network\test_random\9_output_net\graphviz.net.xml"/>
    </output>

    <processing>
        <ignore-errors value="true"/>
        <ignore-errors.edge-type value="true"/>
    </processing>

    <report>
        <verbose value="true"/>
        <xml-validation value="never"/>
        <no-warnings value="true"/>
    </report>

</configuration>
-->

<net version="0.27" xmlns:xsi="http://www.w3.org/2001/XMLSchema-instance" xsi:noNamespaceSchemaLocation="http://sumo.dlr.de/xsd/net_file.xsd">

    <location netOffset="-135889.31,-2611038.99" convBoundary="0.00,0.00,178168.00,178168.00" origBoundary="54.286966,24.391306,54.609531,24.591038" projParameter="+proj=utm +zone=40 +ellps=WGS84 +datum=WGS84 +units=m +no_defs"/>

    <edge id=":node_0_0" function="internal">
        <lane id=":node_0_0_0" index="0" disallow="tram rail_urban rail rail_electric ship" speed="13.89" length="8.20" shape="261.44,266.46 261.70,264.21 262.63,262.63 264.21,261.70 266.46,261.44"/>
    </edge>
    <edge id=":node_0_1" function="internal">
        <lane id=":node_0_1_0" index="0" disallow="tram rail_urban rail rail_electric ship" speed="13.89" length="2.68" shape="266.38,264.74 265.64,264.82 265.13,265.13 264.82,265.64 264.74,266.38"/>
    </edge>
    <edge id=":node_1_0" function="internal">
        <lane id=":node_1_0_0" index="0" disallow="tram rail_urban rail rail_electric ship" speed="13.89" length="9.40" shape="479.37,8795.88 479.23,8786.48"/>
    </edge>
    <edge id=":node_1_1" function="internal">
        <lane id=":node_1_1_0" index="0" disallow="tram rail_urban rail rail_electric ship" speed="13.89" length="10.52" shape="479.37,8795.88 479.77,8793.01 481.00,8791.00 483.05,8789.83 485.93,8789.52"/>
    </edge>
    <edge id=":node_1_2" function="internal">
        <lane id=":node_1_2_0" index="0" disallow="tram rail_urban rail rail_electric ship" speed="13.89" length="5.05" shape="485.82,8792.82 484.43,8792.97 483.45,8793.53 482.86,8794.49 482.67,8795.87"/>
    </edge>
    <edge id=":node_1_3" function="internal">
        <lane id=":node_1_3_0" index="0" disallow="tram rail_urban rail rail_electric ship" speed="13.89" length="10.28" shape="485.82,8792.82 483.00,8792.34 480.96,8791.12 479.70,8789.17 479.23,8786.48"/>
    </edge>
    <edge id=":node_1_4" function="internal">
        <lane id=":node_1_4_0" index="0" disallow="tram rail_urban rail rail_electric ship" speed="13.89" length="5.19" shape="482.53,8786.40 482.77,8787.72 483.42,8788.68 484.47,8789.28 485.93,8789.52"/>
    </edge>
    <edge id=":node_1_5" function="internal">
        <lane id=":node_1_5_0" index="0" disallow="tram rail_urban rail rail_electric ship" speed="13.89" length="9.47" shape="482.53,8786.40 482.67,8795.87"/>
    </edge>
    <edge id=":node_10_0" function="internal">
        <lane id=":node_10_0_0" index="0" disallow="tram rail_urban rail rail_electric ship" speed="13.89" length="9.51" shape="-1.64,89088.76 -1.64,89079.25"/>
    </edge>
    <edge id=":node_10_1" function="internal">
        <lane id=":node_10_1_0" index="0" disallow="tram rail_urban rail rail_electric ship" speed="13.89" length="10.33" shape="-1.64,89088.76 -1.25,89085.96 -0.05,89083.95 1.95,89082.75 4.75,89082.35"/>
    </edge>
    <edge id=":node_10_2" function="internal">
        <lane id=":node_10_2_0" index="0" disallow="tram rail_urban rail rail_electric ship" speed="13.89" length="5.00" shape="4.75,89085.65 3.40,89085.85 2.43,89086.43 1.85,89087.40 1.66,89088.75"/>
    </edge>
    <edge id=":node_10_3" function="internal">
        <lane id=":node_10_3_0" index="0" disallow="tram rail_urban rail rail_electric ship" speed="13.89" length="10.33" shape="4.75,89085.65 1.95,89085.25 -0.05,89084.05 -1.25,89082.05 -1.64,89079.25"/>
    </edge>
    <edge id=":node_10_4" function="internal">
        <lane id=":node_10_4_0" index="0" disallow="tram rail_urban rail rail_electric ship" speed="13.89" length="5.00" shape="1.66,89079.25 1.85,89080.61 2.43,89081.58 3.40,89082.16 4.75,89082.35"/>
    </edge>
    <edge id=":node_10_5" function="internal">
        <lane id=":node_10_5_0" index="0" disallow="tram rail_urban rail rail_electric ship" speed="13.89" length="9.50" shape="1.66,89079.25 1.66,89088.75"/>
    </edge>
    <edge id=":node_100_0" function="internal">
        <lane id=":node_100_0_0" index="0" disallow="tram rail_urban rail rail_electric ship" speed="13.89" length="5.10" shape="35648.37,142523.80 35648.17,142522.42 35647.57,142521.43 35646.58,142520.83 35645.20,142520.63"/>
    </edge>
    <edge id=":node_100_1" function="internal">
        <lane id=":node_100_1_0" index="0" disallow="tram rail_urban rail rail_electric ship" speed="13.89" length="9.57" shape="35648.37,142523.80 35648.32,142514.22"/>
    </edge>
    <edge id=":node_100_2" function="internal">
        <lane id=":node_100_2_0" index="0" disallow="tram rail_urban rail rail_electric ship" speed="13.89" length="10.38" shape="35648.37,142523.80 35648.76,142520.97 35649.96,142518.96 35651.98,142517.77 35654.80,142517.38"/>
    </edge>
    <edge id=":node_100_3" function="internal">
        <lane id=":node_100_3_0" index="0" disallow="tram rail_urban rail rail_electric ship" speed="13.89" length="5.01" shape="35654.78,142520.68 35653.41,142520.87 35652.44,142521.45 35651.86,142522.42 35651.67,142523.78"/>
    </edge>
    <edge id=":node_100_4" function="internal">
        <lane id=":node_100_4_0" index="0" disallow="tram rail_urban rail rail_electric ship" speed="13.89" length="9.57" shape="35654.78,142520.68 35645.20,142520.63"/>
    </edge>
    <edge id=":node_100_5" function="internal">
        <lane id=":node_100_5_0" index="0" disallow="tram rail_urban rail rail_electric ship" speed="13.89" length="10.39" shape="35654.78,142520.68 35651.97,142520.26 35649.95,142519.05 35648.74,142517.03 35648.32,142514.22"/>
    </edge>
    <edge id=":node_100_6" function="internal">
        <lane id=":node_100_6_0" index="0" disallow="tram rail_urban rail rail_electric ship" speed="13.89" length="5.12" shape="35651.62,142514.20 35651.82,142515.58 35652.42,142516.58 35653.42,142517.18 35654.80,142517.38"/>
    </edge>
    <edge id=":node_100_7" function="internal">
        <lane id=":node_100_7_0" index="0" disallow="tram rail_urban rail rail_electric ship" speed="13.89" length="9.58" shape="35651.62,142514.20 35651.67,142523.78"/>
    </edge>
    <edge id=":node_100_8" function="internal">
        <lane id=":node_100_8_0" index="0" disallow="tram rail_urban rail rail_electric ship" speed="13.89" length="10.38" shape="35651.62,142514.20 35651.23,142517.02 35650.04,142519.04 35648.03,142520.24 35645.20,142520.63"/>
    </edge>
    <edge id=":node_100_9" function="internal">
        <lane id=":node_100_9_0" index="0" disallow="tram rail_urban rail rail_electric ship" speed="13.89" length="5.01" shape="35645.22,142517.33 35646.58,142517.14 35647.55,142516.56 35648.13,142515.59 35648.32,142514.22"/>
    </edge>
    <edge id=":node_100_10" function="internal">
        <lane id=":node_100_10_0" index="0" disallow="tram rail_urban rail rail_electric ship" speed="13.89" length="9.58" shape="35645.22,142517.33 35654.80,142517.38"/>
    </edge>
    <edge id=":node_100_11" function="internal">
        <lane id=":node_100_11_0" index="0" disallow="tram rail_urban rail rail_electric ship" speed="13.89" length="10.39" shape="35645.22,142517.33 35648.03,142517.74 35650.04,142518.96 35651.26,142520.97 35651.67,142523.78"/>
    </edge>
    <edge id=":node_101_0" function="internal">
        <lane id=":node_101_0_0" index="0" disallow="tram rail_urban rail rail_electric ship" speed="13.89" length="5.07" shape="35690.34,151431.77 35690.15,151430.40 35689.56,151429.42 35688.58,151428.82 35687.20,151428.62"/>
    </edge>
    <edge id=":node_101_1" function="internal">
        <lane id=":node_101_1_0" index="0" disallow="tram rail_urban rail rail_electric ship" speed="13.89" length="9.55" shape="35690.34,151431.77 35690.33,151422.22"/>
    </edge>
    <edge id=":node_101_2" function="internal">
        <lane id=":node_101_2_0" index="0" disallow="tram rail_urban rail rail_electric ship" speed="13.89" length="10.36" shape="35690.34,151431.77 35690.75,151428.96 35691.96,151426.96 35693.97,151425.77 35696.79,151425.39"/>
    </edge>
    <edge id=":node_101_3" function="internal">
        <lane id=":node_101_3_0" index="0" disallow="tram rail_urban rail rail_electric ship" speed="13.89" length="5.01" shape="35696.76,151428.69 35695.40,151428.87 35694.43,151429.45 35693.84,151430.42 35693.64,151431.78"/>
    </edge>
    <edge id=":node_101_4" function="internal">
        <lane id=":node_101_4_0" index="0" disallow="tram rail_urban rail rail_electric ship" speed="13.89" length="9.56" shape="35696.76,151428.69 35687.20,151428.62"/>
    </edge>
    <edge id=":node_101_5" function="internal">
        <lane id=":node_101_5_0" index="0" disallow="tram rail_urban rail rail_electric ship" speed="13.89" length="10.37" shape="35696.76,151428.69 35693.96,151428.27 35691.95,151427.05 35690.74,151425.03 35690.33,151422.22"/>
    </edge>
    <edge id=":node_101_6" function="internal">
        <lane id=":node_101_6_0" index="0" disallow="tram rail_urban rail rail_electric ship" speed="13.89" length="5.10" shape="35693.63,151422.21 35693.83,151423.59 35694.43,151424.58 35695.41,151425.18 35696.79,151425.39"/>
    </edge>
    <edge id=":node_101_7" function="internal">
        <lane id=":node_101_7_0" index="0" disallow="tram rail_urban rail rail_electric ship" speed="13.89" length="9.57" shape="35693.63,151422.21 35693.64,151431.78"/>
    </edge>
    <edge id=":node_101_8" function="internal">
        <lane id=":node_101_8_0" index="0" disallow="tram rail_urban rail rail_electric ship" speed="13.89" length="10.38" shape="35693.63,151422.21 35693.24,151425.03 35692.04,151427.04 35690.02,151428.23 35687.20,151428.62"/>
    </edge>
    <edge id=":node_101_9" function="internal">
        <lane id=":node_101_9_0" index="0" disallow="tram rail_urban rail rail_electric ship" speed="13.89" length="5.01" shape="35687.22,151425.32 35688.59,151425.13 35689.56,151424.55 35690.14,151423.58 35690.33,151422.22"/>
    </edge>
    <edge id=":node_101_10" function="internal">
        <lane id=":node_101_10_0" index="0" disallow="tram rail_urban rail rail_electric ship" speed="13.89" length="9.57" shape="35687.22,151425.32 35696.79,151425.39"/>
    </edge>
    <edge id=":node_101_11" function="internal">
        <lane id=":node_101_11_0" index="0" disallow="tram rail_urban rail rail_electric ship" speed="13.89" length="10.37" shape="35687.22,151425.32 35690.04,151425.74 35692.04,151426.95 35693.25,151428.97 35693.64,151431.78"/>
    </edge>
    <edge id=":node_102_0" function="internal">
        <lane id=":node_102_0_0" index="0" disallow="tram rail_urban rail rail_electric ship" speed="13.89" length="5.01" shape="35686.72,160324.70 35685.37,160324.88 35684.39,160325.45 35683.80,160326.42 35683.59,160327.78"/>
    </edge>
    <edge id=":node_102_1" function="internal">
        <lane id=":node_102_1_0" index="0" disallow="tram rail_urban rail rail_electric ship" speed="13.89" length="9.51" shape="35686.72,160324.70 35677.21,160324.61"/>
    </edge>
    <edge id=":node_102_2" function="internal">
        <lane id=":node_102_2_0" index="0" disallow="tram rail_urban rail rail_electric ship" speed="13.89" length="10.34" shape="35686.72,160324.70 35683.94,160324.27 35681.94,160323.05 35680.75,160321.03 35680.36,160318.22"/>
    </edge>
    <edge id=":node_102_3" function="internal">
        <lane id=":node_102_3_0" index="0" disallow="tram rail_urban rail rail_electric ship" speed="13.89" length="5.05" shape="35683.66,160318.23 35683.85,160319.60 35684.43,160320.59 35685.40,160321.19 35686.76,160321.40"/>
    </edge>
    <edge id=":node_102_4" function="internal">
        <lane id=":node_102_4_0" index="0" disallow="tram rail_urban rail rail_electric ship" speed="13.89" length="9.56" shape="35683.66,160318.23 35683.59,160327.78"/>
    </edge>
    <edge id=":node_102_5" function="internal">
        <lane id=":node_102_5_0" index="0" disallow="tram rail_urban rail rail_electric ship" speed="13.89" length="10.36" shape="35683.66,160318.23 35683.25,160321.04 35682.04,160323.04 35680.03,160324.23 35677.21,160324.61"/>
    </edge>
    <edge id=":node_102_6" function="internal">
        <lane id=":node_102_6_0" index="0" disallow="tram rail_urban rail rail_electric ship" speed="13.89" length="5.01" shape="35677.24,160321.31 35678.60,160321.13 35679.57,160320.55 35680.16,160319.58 35680.36,160318.22"/>
    </edge>
    <edge id=":node_102_7" function="internal">
        <lane id=":node_102_7_0" index="0" disallow="tram rail_urban rail rail_electric ship" speed="13.89" length="9.52" shape="35677.24,160321.31 35686.76,160321.40"/>
    </edge>
    <edge id=":node_102_8" function="internal">
        <lane id=":node_102_8_0" index="0" disallow="tram rail_urban rail rail_electric ship" speed="13.89" length="10.35" shape="35677.24,160321.31 35680.05,160321.73 35682.04,160322.96 35683.22,160324.97 35683.59,160327.78"/>
    </edge>
    <edge id=":node_102_9" function="internal">
        <lane id=":node_102_9_0" index="0" disallow="tram rail_urban rail rail_electric ship" speed="13.89" length="5.01" shape="35680.29,160327.74 35680.11,160326.38 35679.54,160325.41 35678.57,160324.82 35677.21,160324.61"/>
    </edge>
    <edge id=":node_102_10" function="internal">
        <lane id=":node_102_10_0" index="0" disallow="tram rail_urban rail rail_electric ship" speed="13.89" length="9.52" shape="35680.29,160327.74 35680.36,160318.22"/>
    </edge>
    <edge id=":node_102_11" function="internal">
        <lane id=":node_102_11_0" index="0" disallow="tram rail_urban rail rail_electric ship" speed="13.89" length="10.33" shape="35680.29,160327.74 35680.72,160324.94 35681.95,160322.95 35683.96,160321.77 35686.76,160321.40"/>
    </edge>
    <edge id=":node_103_0" function="internal">
        <lane id=":node_103_0_0" index="0" disallow="tram rail_urban rail rail_electric ship" speed="13.89" length="5.18" shape="35574.74,169163.70 35573.35,169163.89 35572.35,169164.48 35571.72,169165.49 35571.47,169166.90"/>
    </edge>
    <edge id=":node_103_1" function="internal">
        <lane id=":node_103_1_0" index="0" disallow="tram rail_urban rail rail_electric ship" speed="13.89" length="9.59" shape="35574.74,169163.70 35565.15,169163.60"/>
    </edge>
    <edge id=":node_103_2" function="internal">
        <lane id=":node_103_2_0" index="0" disallow="tram rail_urban rail rail_electric ship" speed="13.89" length="10.33" shape="35574.74,169163.70 35571.94,169163.27 35569.95,169162.05 35568.78,169160.03 35568.41,169157.22"/>
    </edge>
    <edge id=":node_103_3" function="internal">
        <lane id=":node_103_3_0" index="0" disallow="tram rail_urban rail rail_electric ship" speed="13.89" length="5.00" shape="35571.71,169157.26 35571.89,169158.62 35572.46,169159.60 35573.42,169160.19 35574.77,169160.40"/>
    </edge>
    <edge id=":node_103_4" function="internal">
        <lane id=":node_103_4_0" index="0" disallow="tram rail_urban rail rail_electric ship" speed="13.89" length="9.64" shape="35571.71,169157.26 35571.47,169166.90"/>
    </edge>
    <edge id=":node_103_5" function="internal">
        <lane id=":node_103_5_0" index="0" disallow="tram rail_urban rail rail_electric ship" speed="13.89" length="10.40" shape="35571.71,169157.26 35571.27,169160.06 35570.03,169162.05 35567.99,169163.23 35565.15,169163.60"/>
    </edge>
    <edge id=":node_103_6" function="internal">
        <lane id=":node_103_6_0" index="0" disallow="tram rail_urban rail rail_electric ship" speed="13.89" length="5.09" shape="35565.18,169160.30 35566.58,169160.12 35567.58,169159.55 35568.19,169158.58 35568.41,169157.22"/>
    </edge>
    <edge id=":node_103_7" function="internal">
        <lane id=":node_103_7_0" index="0" disallow="tram rail_urban rail rail_electric ship" speed="13.89" length="9.60" shape="35565.18,169160.30 35574.77,169160.40"/>
    </edge>
    <edge id=":node_103_8" function="internal">
        <lane id=":node_103_8_0" index="0" disallow="tram rail_urban rail rail_electric ship" speed="13.89" length="10.46" shape="35565.18,169160.30 35568.02,169160.74 35570.02,169161.98 35571.17,169164.04 35571.47,169166.90"/>
    </edge>
    <edge id=":node_103_9" function="internal">
        <lane id=":node_103_9_0" index="0" disallow="tram rail_urban rail rail_electric ship" speed="13.89" length="5.03" shape="35568.17,169166.78 35568.03,169165.40 35567.47,169164.41 35566.51,169163.81 35565.15,169163.60"/>
    </edge>
    <edge id=":node_103_10" function="internal">
        <lane id=":node_103_10_0" index="0" disallow="tram rail_urban rail rail_electric ship" speed="13.89" length="9.56" shape="35568.17,169166.78 35568.41,169157.22"/>
    </edge>
    <edge id=":node_103_11" function="internal">
        <lane id=":node_103_11_0" index="0" disallow="tram rail_urban rail rail_electric ship" speed="13.89" length="10.40" shape="35568.17,169166.78 35568.67,169163.96 35569.94,169161.96 35571.98,169160.77 35574.77,169160.40"/>
    </edge>
    <edge id=":node_104_0" function="internal">
        <lane id=":node_104_0_0" index="0" disallow="tram rail_urban rail rail_electric ship" speed="13.89" length="9.50" shape="35257.82,177795.70 35248.32,177795.60"/>
    </edge>
    <edge id=":node_104_1" function="internal">
        <lane id=":node_104_1_0" index="0" disallow="tram rail_urban rail rail_electric ship" speed="13.89" length="10.45" shape="35257.82,177795.70 35254.98,177795.26 35252.98,177794.02 35251.83,177791.97 35251.53,177789.11"/>
    </edge>
    <edge id=":node_104_2" function="internal">
        <lane id=":node_104_2_0" index="0" disallow="tram rail_urban rail rail_electric ship" speed="13.89" length="5.03" shape="35254.83,177789.23 35254.97,177790.60 35255.53,177791.59 35256.49,177792.19 35257.85,177792.40"/>
    </edge>
    <edge id=":node_104_3" function="internal">
        <lane id=":node_104_3_0" index="0" disallow="tram rail_urban rail rail_electric ship" speed="13.89" length="10.33" shape="35254.83,177789.23 35254.33,177792.04 35253.08,177794.04 35251.08,177795.23 35248.32,177795.60"/>
    </edge>
    <edge id=":node_104_4" function="internal">
        <lane id=":node_104_4_0" index="0" disallow="tram rail_urban rail rail_electric ship" speed="13.89" length="5.11" shape="35248.35,177792.30 35249.70,177792.12 35250.68,177791.52 35251.29,177790.52 35251.53,177789.11"/>
    </edge>
    <edge id=":node_104_5" function="internal">
        <lane id=":node_104_5_0" index="0" disallow="tram rail_urban rail rail_electric ship" speed="13.89" length="9.50" shape="35248.35,177792.30 35257.85,177792.40"/>
    </edge>
    <edge id=":node_105_0" function="internal">
        <lane id=":node_105_0_0" index="0" disallow="tram rail_urban rail rail_electric ship" speed="13.89" length="5.09" shape="44183.50,281.87 44183.27,280.47 44182.66,279.48 44181.68,278.89 44180.34,278.70"/>
    </edge>
    <edge id=":node_105_1" function="internal">
        <lane id=":node_105_1_0" index="0" disallow="tram rail_urban rail rail_electric ship" speed="13.89" length="10.43" shape="44183.50,281.87 44183.82,279.02 44184.98,276.98 44186.97,275.74 44189.80,275.30"/>
    </edge>
    <edge id=":node_105_2" function="internal">
        <lane id=":node_105_2_0" index="0" disallow="tram rail_urban rail rail_electric ship" speed="13.89" length="5.03" shape="44189.84,278.60 44188.47,278.81 44187.51,279.41 44186.95,280.39 44186.80,281.77"/>
    </edge>
    <edge id=":node_105_3" function="internal">
        <lane id=":node_105_3_0" index="0" disallow="tram rail_urban rail rail_electric ship" speed="13.89" length="9.50" shape="44189.84,278.60 44180.34,278.70"/>
    </edge>
    <edge id=":node_105_4" function="internal">
        <lane id=":node_105_4_0" index="0" disallow="tram rail_urban rail rail_electric ship" speed="13.89" length="9.50" shape="44180.30,275.40 44189.80,275.30"/>
    </edge>
    <edge id=":node_105_5" function="internal">
        <lane id=":node_105_5_0" index="0" disallow="tram rail_urban rail rail_electric ship" speed="13.89" length="10.33" shape="44180.30,275.40 44183.07,275.77 44185.07,276.96 44186.32,278.96 44186.80,281.77"/>
    </edge>
    <edge id=":node_106_0" function="internal">
        <lane id=":node_106_0_0" index="0" disallow="tram rail_urban rail rail_electric ship" speed="13.89" length="5.07" shape="44457.41,8916.78 44457.19,8915.42 44456.59,8914.45 44455.59,8913.88 44454.20,8913.70"/>
    </edge>
    <edge id=":node_106_1" function="internal">
        <lane id=":node_106_1_0" index="0" disallow="tram rail_urban rail rail_electric ship" speed="13.89" length="9.54" shape="44457.41,8916.78 44457.20,8907.24"/>
    </edge>
    <edge id=":node_106_2" function="internal">
        <lane id=":node_106_2_0" index="0" disallow="tram rail_urban rail rail_electric ship" speed="13.89" length="10.33" shape="44457.41,8916.78 44457.77,8913.97 44458.95,8911.95 44460.94,8910.73 44463.74,8910.30"/>
    </edge>
    <edge id=":node_106_3" function="internal">
        <lane id=":node_106_3_0" index="0" disallow="tram rail_urban rail rail_electric ship" speed="13.89" length="5.00" shape="44463.77,8913.60 44462.42,8913.81 44461.46,8914.40 44460.89,8915.38 44460.71,8916.74"/>
    </edge>
    <edge id=":node_106_4" function="internal">
        <lane id=":node_106_4_0" index="0" disallow="tram rail_urban rail rail_electric ship" speed="13.89" length="9.58" shape="44463.77,8913.60 44454.20,8913.70"/>
    </edge>
    <edge id=":node_106_5" function="internal">
        <lane id=":node_106_5_0" index="0" disallow="tram rail_urban rail rail_electric ship" speed="13.89" length="10.39" shape="44463.77,8913.60 44460.97,8913.23 44458.94,8912.04 44457.69,8910.04 44457.20,8907.24"/>
    </edge>
    <edge id=":node_106_6" function="internal">
        <lane id=":node_106_6_0" index="0" disallow="tram rail_urban rail rail_electric ship" speed="13.89" length="5.15" shape="44460.50,8907.13 44460.74,8908.53 44461.36,8909.53 44462.36,8910.12 44463.74,8910.30"/>
    </edge>
    <edge id=":node_106_7" function="internal">
        <lane id=":node_106_7_0" index="0" disallow="tram rail_urban rail rail_electric ship" speed="13.89" length="9.61" shape="44460.50,8907.13 44460.71,8916.74"/>
    </edge>
    <edge id=":node_106_8" function="internal">
        <lane id=":node_106_8_0" index="0" disallow="tram rail_urban rail rail_electric ship" speed="13.89" length="10.43" shape="44460.50,8907.13 44460.18,8909.98 44459.02,8912.02 44457.03,8913.26 44454.20,8913.70"/>
    </edge>
    <edge id=":node_106_9" function="internal">
        <lane id=":node_106_9_0" index="0" disallow="tram rail_urban rail rail_electric ship" speed="13.89" length="5.03" shape="44454.16,8910.40 44455.53,8910.19 44456.49,8909.59 44457.05,8908.61 44457.20,8907.24"/>
    </edge>
    <edge id=":node_106_10" function="internal">
        <lane id=":node_106_10_0" index="0" disallow="tram rail_urban rail rail_electric ship" speed="13.89" length="9.58" shape="44454.16,8910.40 44463.74,8910.30"/>
    </edge>
    <edge id=":node_106_11" function="internal">
        <lane id=":node_106_11_0" index="0" disallow="tram rail_urban rail rail_electric ship" speed="13.89" length="10.38" shape="44454.16,8910.40 44457.00,8910.77 44459.03,8911.95 44460.27,8913.94 44460.71,8916.74"/>
    </edge>
    <edge id=":node_107_0" function="internal">
        <lane id=":node_107_0_0" index="0" disallow="tram rail_urban rail rail_electric ship" speed="13.89" length="5.01" shape="44566.36,17760.78 44566.16,17759.42 44565.58,17758.45 44564.60,17757.88 44563.24,17757.70"/>
    </edge>
    <edge id=":node_107_1" function="internal">
        <lane id=":node_107_1_0" index="0" disallow="tram rail_urban rail rail_electric ship" speed="13.89" length="9.52" shape="44566.36,17760.78 44566.29,17751.26"/>
    </edge>
    <edge id=":node_107_2" function="internal">
        <lane id=":node_107_2_0" index="0" disallow="tram rail_urban rail rail_electric ship" speed="13.89" length="10.34" shape="44566.36,17760.78 44566.75,17757.97 44567.94,17755.95 44569.94,17754.73 44572.73,17754.30"/>
    </edge>
    <edge id=":node_107_3" function="internal">
        <lane id=":node_107_3_0" index="0" disallow="tram rail_urban rail rail_electric ship" speed="13.89" length="5.04" shape="44572.76,17757.60 44571.40,17757.81 44570.43,17758.41 44569.85,17759.40 44569.66,17760.77"/>
    </edge>
    <edge id=":node_107_4" function="internal">
        <lane id=":node_107_4_0" index="0" disallow="tram rail_urban rail rail_electric ship" speed="13.89" length="9.52" shape="44572.76,17757.60 44563.24,17757.70"/>
    </edge>
    <edge id=":node_107_5" function="internal">
        <lane id=":node_107_5_0" index="0" disallow="tram rail_urban rail rail_electric ship" speed="13.89" length="10.32" shape="44572.76,17757.60 44569.96,17757.23 44567.95,17756.05 44566.73,17754.06 44566.29,17751.26"/>
    </edge>
    <edge id=":node_107_6" function="internal">
        <lane id=":node_107_6_0" index="0" disallow="tram rail_urban rail rail_electric ship" speed="13.89" length="5.01" shape="44569.59,17751.22 44569.80,17752.58 44570.39,17753.55 44571.37,17754.12 44572.73,17754.30"/>
    </edge>
    <edge id=":node_107_7" function="internal">
        <lane id=":node_107_7_0" index="0" disallow="tram rail_urban rail rail_electric ship" speed="13.89" length="9.55" shape="44569.59,17751.22 44569.66,17760.77"/>
    </edge>
    <edge id=":node_107_8" function="internal">
        <lane id=":node_107_8_0" index="0" disallow="tram rail_urban rail rail_electric ship" speed="13.89" length="10.35" shape="44569.59,17751.22 44569.22,17754.03 44568.04,17756.05 44566.05,17757.27 44563.24,17757.70"/>
    </edge>
    <edge id=":node_107_9" function="internal">
        <lane id=":node_107_9_0" index="0" disallow="tram rail_urban rail rail_electric ship" speed="13.89" length="5.02" shape="44563.21,17754.40 44564.57,17754.19 44565.54,17753.60 44566.11,17752.62 44566.29,17751.26"/>
    </edge>
    <edge id=":node_107_10" function="internal">
        <lane id=":node_107_10_0" index="0" disallow="tram rail_urban rail rail_electric ship" speed="13.89" length="9.52" shape="44563.21,17754.40 44572.73,17754.30"/>
    </edge>
    <edge id=":node_107_11" function="internal">
        <lane id=":node_107_11_0" index="0" disallow="tram rail_urban rail rail_electric ship" speed="13.89" length="10.36" shape="44563.21,17754.40 44566.03,17754.77 44568.04,17755.96 44569.25,17757.96 44569.66,17760.77"/>
    </edge>
    <edge id=":node_108_0" function="internal">
        <lane id=":node_108_0_0" index="0" disallow="tram rail_urban rail rail_electric ship" speed="13.89" length="5.09" shape="44591.79,26665.61 44590.41,26665.82 44589.43,26666.42 44588.84,26667.41 44588.64,26668.79"/>
    </edge>
    <edge id=":node_108_1" function="internal">
        <lane id=":node_108_1_0" index="0" disallow="tram rail_urban rail rail_electric ship" speed="13.89" length="9.56" shape="44591.79,26665.61 44582.23,26665.69"/>
    </edge>
    <edge id=":node_108_2" function="internal">
        <lane id=":node_108_2_0" index="0" disallow="tram rail_urban rail rail_electric ship" speed="13.89" length="10.35" shape="44591.79,26665.61 44588.97,26665.23 44586.96,26664.04 44585.75,26662.04 44585.34,26659.23"/>
    </edge>
    <edge id=":node_108_3" function="internal">
        <lane id=":node_108_3_0" index="0" disallow="tram rail_urban rail rail_electric ship" speed="13.89" length="5.01" shape="44588.64,26659.23 44588.84,26660.58 44589.42,26661.55 44590.40,26662.13 44591.76,26662.31"/>
    </edge>
    <edge id=":node_108_4" function="internal">
        <lane id=":node_108_4_0" index="0" disallow="tram rail_urban rail rail_electric ship" speed="13.89" length="9.57" shape="44588.64,26659.23 44588.64,26668.79"/>
    </edge>
    <edge id=":node_108_5" function="internal">
        <lane id=":node_108_5_0" index="0" disallow="tram rail_urban rail rail_electric ship" speed="13.89" length="10.37" shape="44588.64,26659.23 44588.24,26662.03 44587.04,26664.05 44585.04,26665.27 44582.23,26665.69"/>
    </edge>
    <edge id=":node_108_6" function="internal">
        <lane id=":node_108_6_0" index="0" disallow="tram rail_urban rail rail_electric ship" speed="13.89" length="5.07" shape="44582.20,26662.39 44583.57,26662.18 44584.56,26661.59 44585.15,26660.60 44585.34,26659.23"/>
    </edge>
    <edge id=":node_108_7" function="internal">
        <lane id=":node_108_7_0" index="0" disallow="tram rail_urban rail rail_electric ship" speed="13.89" length="9.56" shape="44582.20,26662.39 44591.76,26662.31"/>
    </edge>
    <edge id=":node_108_8" function="internal">