<?xml version="1.0" encoding="UTF-8"?>

<!-- generated on 12/01/16 15:15:45 by SUMO netconvert Version 0.27.1
<?xml version="1.0" encoding="UTF-8"?>

<configuration xmlns:xsi="http://www.w3.org/2001/XMLSchema-instance" xsi:noNamespaceSchemaLocation="http://sumo.dlr.de/xsd/netconvertConfiguration.xsd">

    <input>
        <node-files value="C:\Users\zs633\Capstone\3_lensing\test_random\7_displaced\lensing.nod.xml"/>
        <edge-files value="C:\Users\zs633\Capstone\3_lensing\test_random\7_displaced\lensing.edg.xml"/>
        <connection-files value="C:\Users\zs633\Capstone\3_lensing\test_random\4_plain\test.con.xml"/>
        <tllogic-files value="C:\Users\zs633\Capstone\3_lensing\test_random\4_plain\test.tll.xml"/>
    </input>

    <output>
        <output-file value="C:\Users\zs633\Capstone\3_lensing\test_random\9_output_net\lensing.net.xml"/>
    </output>

    <processing>
        <ignore-errors value="true"/>
        <ignore-errors.edge-type value="true"/>
    </processing>

    <report>
        <verbose value="true"/>
        <xml-validation value="never"/>
        <no-warnings value="true"/>
    </report>

</configuration>
-->

<net version="0.27" xmlns:xsi="http://www.w3.org/2001/XMLSchema-instance" xsi:noNamespaceSchemaLocation="http://sumo.dlr.de/xsd/net_file.xsd">

    <location netOffset="3053.49,3025.02" convBoundary="0.00,0.00,8334.58,8125.28" origBoundary="-3053.49,-3025.02,5281.08,5100.26" projParameter="!"/>

    <edge id=":node_00x00_0" function="internal">
        <lane id=":node_00x00_0_0" index="0" disallow="tram rail_urban rail rail_electric ship" speed="13.89" length="0.91" shape="2749.26,2739.82 2749.03,2739.95 2748.88,2740.07 2748.77,2740.22 2748.63,2740.45"/>
    </edge>
    <edge id=":node_00x00_1" function="internal">
        <lane id=":node_00x00_1_0" index="0" disallow="tram rail_urban rail rail_electric ship" speed="13.89" length="2.79" shape="2745.74,2738.86 2746.15,2738.15 2746.50,2737.70 2746.95,2737.34 2747.66,2736.93"/>
    </edge>
    <edge id=":node_00x01_0" function="internal">
        <lane id=":node_00x01_0_0" index="0" disallow="tram rail_urban rail rail_electric ship" speed="13.89" length="9.97" shape="2620.51,2986.90 2616.98,2987.98 2614.35,2989.06 2612.61,2990.15 2611.77,2991.25"/>
    </edge>
    <edge id=":node_00x01_1" function="internal">
        <lane id=":node_00x01_1_0" index="0" disallow="tram rail_urban rail rail_electric ship" speed="13.89" length="16.20" shape="2620.51,2986.90 2615.42,2987.67 2612.67,2986.58 2612.27,2983.66 2614.22,2978.89"/>
    </edge>
    <edge id=":node_00x01_2" function="internal">
        <lane id=":node_00x01_2_0" index="0" disallow="tram rail_urban rail rail_electric ship" speed="13.89" length="6.55" shape="2617.11,2980.48 2616.32,2982.41 2616.49,2983.59 2617.60,2984.03 2619.66,2983.72"/>
    </edge>
    <edge id=":node_00x01_3" function="internal">
        <lane id=":node_00x01_3_0" index="0" disallow="tram rail_urban rail rail_electric ship" speed="13.89" length="12.02" shape="2617.11,2980.48 2611.77,2991.25"/>
    </edge>
    <edge id=":node_00x01_4" function="internal">
        <lane id=":node_00x01_4_0" index="0" disallow="tram rail_urban rail rail_electric ship" speed="13.89" length="12.57" shape="2608.66,2990.15 2609.89,2987.02 2611.16,2984.40 2612.57,2981.84 2614.22,2978.89"/>
    </edge>
    <edge id=":node_00x01_5" function="internal">
        <lane id=":node_00x01_5_0" index="0" disallow="tram rail_urban rail rail_electric ship" speed="13.89" length="13.12" shape="2608.66,2990.15 2609.86,2988.31 2612.09,2986.62 2615.35,2985.09 2619.66,2983.72"/>
    </edge>
    <edge id=":node_00x02_0" function="internal">
        <lane id=":node_00x02_0_0" index="0" disallow="tram rail_urban rail rail_electric ship" speed="13.89" length="4.99" shape="2554.73,3170.65 2553.30,3170.98 2552.20,3170.85 2551.16,3170.82 2549.94,3171.47"/>
    </edge>
    <edge id=":node_00x02_1" function="internal">
        <lane id=":node_00x02_1_0" index="0" disallow="tram rail_urban rail rail_electric ship" speed="13.89" length="16.17" shape="2554.73,3170.65 2549.83,3172.20 2546.95,3171.57 2546.08,3168.75 2547.23,3163.74"/>
    </edge>
    <edge id=":node_00x02_2" function="internal">
        <lane id=":node_00x02_2_0" index="0" disallow="tram rail_urban rail rail_electric ship" speed="13.89" length="6.54" shape="2550.35,3164.85 2549.88,3166.87 2550.23,3168.01 2551.40,3168.27 2553.38,3167.64"/>
    </edge>
    <edge id=":node_00x02_3" function="internal">
        <lane id=":node_00x02_3_0" index="0" disallow="tram rail_urban rail rail_electric ship" speed="13.89" length="6.64" shape="2550.35,3164.85 2549.94,3171.47"/>
    </edge>
    <edge id=":node_00x02_4" function="internal">
        <lane id=":node_00x02_4_0" index="0" disallow="tram rail_urban rail rail_electric ship" speed="13.89" length="5.66" shape="2547.81,3168.96 2548.44,3167.78 2547.94,3166.64 2547.24,3165.36 2547.23,3163.74"/>
    </edge>
    <edge id=":node_00x02_5" function="internal">
        <lane id=":node_00x02_5_0" index="0" disallow="tram rail_urban rail rail_electric ship" speed="13.89" length="5.85" shape="2547.81,3168.96 2549.23,3168.14 2550.43,3168.04 2551.71,3168.08 2553.38,3167.64"/>
    </edge>
    <edge id=":node_00x03_0" function="internal">
        <lane id=":node_00x03_0_0" index="0" disallow="tram rail_urban rail rail_electric ship" speed="13.89" length="4.34" shape="2459.73,3248.06 2458.74,3248.89 2458.03,3249.41 2457.25,3249.84 2456.09,3250.38"/>
    </edge>
    <edge id=":node_00x03_1" function="internal">
        <lane id=":node_00x03_1_0" index="0" disallow="tram rail_urban rail rail_electric ship" speed="13.89" length="3.31" shape="2459.73,3248.06 2457.59,3245.54"/>
    </edge>
    <edge id=":node_00x03_2" function="internal">
        <lane id=":node_00x03_2_0" index="0" disallow="tram rail_urban rail rail_electric ship" speed="13.89" length="4.34" shape="2459.72,3248.06 2458.74,3248.89 2458.03,3249.41 2457.25,3249.84 2456.09,3250.38"/>
    </edge>
    <edge id=":node_00x03_3" function="internal">
        <lane id=":node_00x03_3_0" index="0" disallow="tram rail_urban rail rail_electric ship" speed="13.89" length="3.29" shape="2459.72,3248.06 2457.59,3245.55"/>
    </edge>
    <edge id=":node_00x03_4" function="internal">
        <lane id=":node_00x03_4_0" index="0" disallow="tram rail_urban rail rail_electric ship" speed="13.89" length="3.43" shape="2454.72,3247.38 2455.64,3246.95 2456.25,3246.61 2456.81,3246.20 2457.59,3245.54"/>
    </edge>
    <edge id=":node_00x03_5" function="internal">
        <lane id=":node_00x03_5_0" index="0" disallow="tram rail_urban rail rail_electric ship" speed="13.89" length="3.43" shape="2454.72,3247.38 2455.64,3246.95 2456.25,3246.61 2456.81,3246.20 2457.59,3245.55"/>
    </edge>
    <edge id=":node_00x04_0" function="internal">
        <lane id=":node_00x04_0_0" index="0" disallow="tram rail_urban rail rail_electric ship" speed="13.89" length="4.81" shape="2373.13,3288.32 2371.78,3288.75 2370.76,3288.85 2369.80,3289.04 2368.59,3289.72"/>
    </edge>
    <edge id=":node_00x04_1" function="internal">
        <lane id=":node_00x04_1_0" index="0" disallow="tram rail_urban rail rail_electric ship" speed="13.89" length="14.37" shape="2373.13,3288.32 2368.93,3289.62 2366.21,3289.03 2364.95,3286.54 2365.17,3282.15"/>
    </edge>
    <edge id=":node_00x04_2" function="internal">
        <lane id=":node_00x04_2_0" index="0" disallow="tram rail_urban rail rail_electric ship" speed="13.89" length="6.03" shape="2368.41,3282.73 2368.32,3284.57 2368.85,3285.61 2369.99,3285.86 2371.76,3285.31"/>
    </edge>
    <edge id=":node_00x04_3" function="internal">
        <lane id=":node_00x04_3_0" index="0" disallow="tram rail_urban rail rail_electric ship" speed="13.89" length="6.99" shape="2368.41,3282.73 2368.59,3289.72"/>
    </edge>
    <edge id=":node_00x04_4" function="internal">
        <lane id=":node_00x04_4_0" index="0" disallow="tram rail_urban rail rail_electric ship" speed="13.89" length="5.68" shape="2366.61,3287.08 2367.19,3286.01 2366.49,3284.98 2365.49,3283.77 2365.17,3282.15"/>
    </edge>
    <edge id=":node_00x04_5" function="internal">
        <lane id=":node_00x04_5_0" index="0" disallow="tram rail_urban rail rail_electric ship" speed="13.89" length="5.49" shape="2366.61,3287.08 2367.98,3286.27 2369.07,3286.01 2370.21,3285.84 2371.76,3285.31"/>
    </edge>
    <edge id=":node_00x05_0" function="internal">
        <lane id=":node_00x05_0_0" index="0" disallow="tram rail_urban rail rail_electric ship" speed="13.89" length="11.23" shape="2207.27,3410.63 2198.05,3417.03"/>
    </edge>
    <edge id=":node_00x05_1" function="internal">
        <lane id=":node_00x05_1_0" index="0" disallow="tram rail_urban rail rail_electric ship" speed="13.89" length="14.20" shape="2207.27,3410.63 2203.51,3412.76 2200.74,3412.76 2198.95,3410.63 2198.16,3406.38"/>
    </edge>
    <edge id=":node_00x05_2" function="internal">
        <lane id=":node_00x05_2_0" index="0" disallow="tram rail_urban rail rail_electric ship" speed="13.89" length="5.98" shape="2201.45,3406.20 2201.79,3407.99 2202.54,3408.88 2203.71,3408.88 2205.30,3407.99"/>
    </edge>
    <edge id=":node_00x05_3" function="internal">
        <lane id=":node_00x05_3_0" index="0" disallow="tram rail_urban rail rail_electric ship" speed="13.89" length="11.88" shape="2201.45,3406.20 2201.42,3410.08 2200.84,3413.19 2199.72,3415.50 2198.05,3417.03"/>
    </edge>
    <edge id=":node_00x05_4" function="internal">
        <lane id=":node_00x05_4_0" index="0" disallow="tram rail_urban rail rail_electric ship" speed="13.89" length="8.29" shape="2196.39,3414.18 2197.30,3413.22 2197.90,3411.60 2198.19,3409.32 2198.16,3406.38"/>
    </edge>
    <edge id=":node_00x05_5" function="internal">
        <lane id=":node_00x05_5_0" index="0" disallow="tram rail_urban rail rail_electric ship" speed="13.89" length="10.85" shape="2196.39,3414.18 2205.30,3407.99"/>
    </edge>
    <edge id=":node_00x06_0" function="internal">
        <lane id=":node_00x06_0_0" index="0" disallow="tram rail_urban rail rail_electric ship" speed="13.89" length="8.43" shape="2057.81,3498.93 2055.62,3500.14 2054.10,3500.99 2052.78,3502.07 2051.16,3503.95"/>
    </edge>
    <edge id=":node_00x06_1" function="internal">
        <lane id=":node_00x06_1_0" index="0" disallow="tram rail_urban rail rail_electric ship" speed="13.89" length="12.32" shape="2057.81,3498.93 2054.50,3500.28 2051.93,3500.05 2050.08,3498.24 2048.96,3494.85"/>
    </edge>
    <edge id=":node_00x06_2" function="internal">
        <lane id=":node_00x06_2_0" index="0" disallow="tram rail_urban rail rail_electric ship" speed="13.89" length="5.49" shape="2052.20,3494.26 2052.70,3495.77 2053.53,3496.58 2054.67,3496.68 2056.15,3496.08"/>
    </edge>
    <edge id=":node_00x06_3" function="internal">
        <lane id=":node_00x06_3_0" index="0" disallow="tram rail_urban rail rail_electric ship" speed="13.89" length="9.99" shape="2052.20,3494.26 2052.60,3497.41 2052.56,3500.07 2052.08,3502.25 2051.16,3503.95"/>
    </edge>
    <edge id=":node_00x06_4" function="internal">
        <lane id=":node_00x06_4_0" index="0" disallow="tram rail_urban rail rail_electric ship" speed="13.89" length="7.24" shape="2048.56,3501.92 2049.09,3500.82 2049.34,3499.28 2049.29,3497.29 2048.96,3494.85"/>
    </edge>
    <edge id=":node_00x06_5" function="internal">
        <lane id=":node_00x06_5_0" index="0" disallow="tram rail_urban rail rail_electric ship" speed="13.89" length="9.69" shape="2048.56,3501.92 2050.40,3499.75 2051.90,3498.49 2053.63,3497.48 2056.15,3496.08"/>
    </edge>
    <edge id=":node_00x07_0" function="internal">
        <lane id=":node_00x07_0_0" index="0" disallow="tram rail_urban rail rail_electric ship" speed="13.89" length="10.68" shape="1937.61,3649.92 1930.67,3658.04"/>
    </edge>
    <edge id=":node_00x07_1" function="internal">
        <lane id=":node_00x07_1_0" index="0" disallow="tram rail_urban rail rail_electric ship" speed="13.89" length="12.99" shape="1937.61,3649.92 1934.87,3652.60 1932.31,3653.34 1929.95,3652.12 1927.77,3648.96"/>
    </edge>
    <edge id=":node_00x07_2" function="internal">
        <lane id=":node_00x07_2_0" index="0" disallow="tram rail_urban rail rail_electric ship" speed="13.89" length="5.66" shape="1930.72,3647.48 1931.67,3648.86 1932.70,3649.38 1933.81,3649.07 1935.01,3647.90"/>
    </edge>
    <edge id=":node_00x07_3" function="internal">
        <lane id=":node_00x07_3_0" index="0" disallow="tram rail_urban rail rail_electric ship" speed="13.89" length="11.30" shape="1930.72,3647.48 1932.04,3650.76 1932.47,3653.62 1932.02,3656.04 1930.67,3658.04"/>
    </edge>
    <edge id=":node_00x07_4" function="internal">
        <lane id=":node_00x07_4_0" index="0" disallow="tram rail_urban rail rail_electric ship" speed="13.89" length="7.17" shape="1928.34,3655.71 1929.01,3654.58 1929.14,3653.08 1928.73,3651.21 1927.77,3648.96"/>
    </edge>
    <edge id=":node_00x07_5" function="internal">
        <lane id=":node_00x07_5_0" index="0" disallow="tram rail_urban rail rail_electric ship" speed="13.89" length="10.27" shape="1928.34,3655.71 1935.01,3647.90"/>
    </edge>
    <edge id=":node_00x08_0" function="internal">
        <lane id=":node_00x08_0_0" index="0" disallow="tram rail_urban rail rail_electric ship" speed="13.89" length="9.91" shape="1844.15,3744.46 1836.87,3751.18"/>
    </edge>
    <edge id=":node_00x08_1" function="internal">
        <lane id=":node_00x08_1_0" index="0" disallow="tram rail_urban rail rail_electric ship" speed="13.89" length="10.58" shape="1844.15,3744.46 1841.96,3746.06 1839.65,3746.56 1837.24,3745.97 1834.72,3744.29"/>
    </edge>
    <edge id=":node_00x08_2" function="internal">
        <lane id=":node_00x08_2_0" index="0" disallow="tram rail_urban rail rail_electric ship" speed="13.89" length="5.54" shape="1836.88,3741.80 1838.25,3742.73 1839.53,3743.10 1840.72,3742.90 1841.82,3742.13"/>
    </edge>
    <edge id=":node_00x08_3" function="internal">
        <lane id=":node_00x08_3_0" index="0" disallow="tram rail_urban rail rail_electric ship" speed="13.89" length="11.10" shape="1836.88,3741.80 1838.92,3744.14 1839.59,3746.49 1838.91,3748.84 1836.87,3751.18"/>
    </edge>
    <edge id=":node_00x08_4" function="internal">
        <lane id=":node_00x08_4_0" index="0" disallow="tram rail_urban rail rail_electric ship" speed="13.89" length="5.19" shape="1834.71,3748.68 1835.67,3747.58 1835.99,3746.49 1835.67,3745.39 1834.72,3744.29"/>
    </edge>
    <edge id=":node_00x08_5" function="internal">
        <lane id=":node_00x08_5_0" index="0" disallow="tram rail_urban rail rail_electric ship" speed="13.89" length="9.66" shape="1834.71,3748.68 1841.82,3742.13"/>
    </edge>
    <edge id=":node_00x09_0" function="internal">
        <lane id=":node_00x09_0_0" index="0" disallow="tram rail_urban rail rail_electric ship" speed="13.89" length="5.99" shape="1764.12,3813.72 1762.85,3814.92 1762.17,3815.94 1761.83,3817.14 1761.60,3818.89"/>
    </edge>
    <edge id=":node_00x09_1" function="internal">
        <lane id=":node_00x09_1_0" index="0" disallow="tram rail_urban rail rail_electric ship" speed="13.89" length="8.53" shape="1764.12,3813.72 1762.36,3814.87 1760.43,3815.44 1758.34,3815.42 1756.09,3814.81"/>
    </edge>
    <edge id=":node_00x09_2" function="internal">
        <lane id=":node_00x09_2_0" index="0" disallow="tram rail_urban rail rail_electric ship" speed="13.89" length="4.96" shape="1757.29,3811.73 1758.63,3812.11 1759.86,3812.15 1760.98,3811.85 1761.97,3811.22"/>
    </edge>
    <edge id=":node_00x09_3" function="internal">
        <lane id=":node_00x09_3_0" index="0" disallow="tram rail_urban rail rail_electric ship" speed="13.89" length="9.10" shape="1757.29,3811.73 1759.40,3812.89 1760.83,3814.48 1761.56,3816.48 1761.60,3818.89"/>
    </edge>
    <edge id=":node_00x09_4" function="internal">
        <lane id=":node_00x09_4_0" index="0" disallow="tram rail_urban rail rail_electric ship" speed="13.89" length="4.71" shape="1758.33,3818.51 1758.31,3817.26 1757.93,3816.23 1757.19,3815.41 1756.09,3814.81"/>
    </edge>
    <edge id=":node_00x09_5" function="internal">
        <lane id=":node_00x09_5_0" index="0" disallow="tram rail_urban rail rail_electric ship" speed="13.89" length="8.49" shape="1758.33,3818.51 1758.66,3816.04 1759.16,3814.34 1760.16,3812.91 1761.97,3811.22"/>
    </edge>
    <edge id=":node_00x10_0" function="internal">
        <lane id=":node_00x10_0_0" index="0" disallow="tram rail_urban rail rail_electric ship" speed="13.89" length="10.60" shape="1747.28,3942.44 1746.89,3945.48 1746.49,3947.68 1745.89,3949.84 1744.90,3952.74"/>
    </edge>
    <edge id=":node_00x10_1" function="internal">
        <lane id=":node_00x10_1_0" index="0" disallow="tram rail_urban rail rail_electric ship" speed="13.89" length="10.90" shape="1747.28,3942.44 1746.50,3945.35 1744.97,3947.22 1742.68,3948.04 1739.64,3947.82"/>
    </edge>
    <edge id=":node_00x10_2" function="internal">
        <lane id=":node_00x10_2_0" index="0" disallow="tram rail_urban rail rail_electric ship" speed="13.89" length="5.19" shape="1740.35,3944.60 1741.80,3944.71 1742.90,3944.32 1743.63,3943.44 1744.00,3942.06"/>
    </edge>
    <edge id=":node_00x10_3" function="internal">
        <lane id=":node_00x10_3_0" index="0" disallow="tram rail_urban rail rail_electric ship" speed="13.89" length="10.96" shape="1740.35,3944.60 1743.21,3945.67 1744.92,3947.38 1745.49,3949.74 1744.90,3952.74"/>
    </edge>
    <edge id=":node_00x10_4" function="internal">
        <lane id=":node_00x10_4_0" index="0" disallow="tram rail_urban rail rail_electric ship" speed="13.89" length="5.15" shape="1741.78,3951.65 1742.06,3950.24 1741.80,3949.13 1740.99,3948.32 1739.64,3947.82"/>
    </edge>
    <edge id=":node_00x10_5" function="internal">
        <lane id=":node_00x10_5_0" index="0" disallow="tram rail_urban rail rail_electric ship" speed="13.89" length="9.87" shape="1741.78,3951.65 1742.74,3948.88 1743.29,3946.95 1743.64,3944.97 1744.00,3942.06"/>
    </edge>
    <edge id=":node_00x11_0" function="internal">
        <lane id=":node_00x11_0_0" index="0" disallow="tram rail_urban rail rail_electric ship" speed="13.89" length="5.27" shape="1684.90,4118.47 1684.68,4117.24 1684.06,4116.22 1683.04,4115.42 1681.63,4114.84"/>
    </edge>
    <edge id=":node_00x11_1" function="internal">
        <lane id=":node_00x11_1_0" index="0" disallow="tram rail_urban rail rail_electric ship" speed="13.89" length="9.01" shape="1684.90,4118.47 1684.91,4115.80 1685.10,4113.98 1685.58,4112.20 1686.45,4109.67"/>
    </edge>
    <edge id=":node_00x11_2" function="internal">
        <lane id=":node_00x11_2_0" index="0" disallow="tram rail_urban rail rail_electric ship" speed="13.89" length="7.85" shape="1689.56,4110.76 1688.80,4112.96 1688.38,4114.51 1688.21,4116.10 1688.20,4118.42"/>
    </edge>
    <edge id=":node_00x11_3" function="internal">
        <lane id=":node_00x11_3_0" index="0" disallow="tram rail_urban rail rail_electric ship" speed="13.89" length="10.06" shape="1689.56,4110.76 1688.31,4113.20 1686.56,4114.69 1684.34,4115.24 1681.63,4114.84"/>
    </edge>
    <edge id=":node_00x11_4" function="internal">
        <lane id=":node_00x11_4_0" index="0" disallow="tram rail_urban rail rail_electric ship" speed="13.89" length="4.94" shape="1682.55,4111.67 1683.88,4111.87 1684.98,4111.60 1685.83,4110.87 1686.45,4109.67"/>
    </edge>
    <edge id=":node_00x11_5" function="internal">
        <lane id=":node_00x11_5_0" index="0" disallow="tram rail_urban rail rail_electric ship" speed="13.89" length="9.49" shape="1682.55,4111.67 1685.00,4112.71 1686.75,4114.18 1687.82,4116.08 1688.20,4118.42"/>
    </edge>
    <edge id=":node_00x12_0" function="internal">
        <lane id=":node_00x12_0_0" index="0" disallow="tram rail_urban rail rail_electric ship" speed="13.89" length="5.63" shape="1689.57,4285.84 1688.72,4285.02 1687.58,4284.46 1686.15,4284.16 1684.43,4284.12"/>
    </edge>
    <edge id=":node_00x12_1" function="internal">
        <lane id=":node_00x12_1_0" index="0" disallow="tram rail_urban rail rail_electric ship" speed="13.89" length="8.77" shape="1689.57,4285.84 1688.15,4283.71 1687.49,4282.04 1687.29,4280.23 1687.26,4277.63"/>
    </edge>
    <edge id=":node_00x12_2" function="internal">
        <lane id=":node_00x12_2_0" index="0" disallow="tram rail_urban rail rail_electric ship" speed="13.89" length="6.72" shape="1690.56,4277.58 1690.57,4279.57 1690.69,4280.97 1691.16,4282.25 1692.23,4283.89"/>
    </edge>
    <edge id=":node_00x12_3" function="internal">
        <lane id=":node_00x12_3_0" index="0" disallow="tram rail_urban rail rail_electric ship" speed="13.89" length="10.14" shape="1690.56,4277.58 1690.21,4280.33 1689.07,4282.33 1687.14,4283.60 1684.43,4284.12"/>
    </edge>
    <edge id=":node_00x12_4" function="internal">
        <lane id=":node_00x12_4_0" index="0" disallow="tram rail_urban rail rail_electric ship" speed="13.89" length="4.96" shape="1684.26,4280.83 1685.59,4280.57 1686.53,4279.95 1687.09,4278.97 1687.26,4277.63"/>
    </edge>
    <edge id=":node_00x12_5" function="internal">
        <lane id=":node_00x12_5_0" index="0" disallow="tram rail_urban rail rail_electric ship" speed="13.89" length="8.90" shape="1684.26,4280.83 1686.83,4280.91 1689.01,4281.45 1690.81,4282.45 1692.23,4283.89"/>
    </edge>
    <edge id=":node_00x13_0" function="internal">
        <lane id=":node_00x13_0_0" index="0" disallow="tram rail_urban rail rail_electric ship" speed="13.89" length="5.62" shape="1792.78,4424.92 1791.67,4424.34 1790.43,4424.23 1789.05,4424.56 1787.55,4425.36"/>
    </edge>
    <edge id=":node_00x13_1" function="internal">
        <lane id=":node_00x13_1_0" index="0" disallow="tram rail_urban rail rail_electric ship" speed="13.89" length="9.17" shape="1792.78,4424.92 1790.66,4423.23 1789.31,4421.94 1788.13,4420.48 1786.53,4418.28"/>
    </edge>
    <edge id=":node_00x13_2" function="internal">
        <lane id=":node_00x13_2_0" index="0" disallow="tram rail_urban rail rail_electric ship" speed="13.89" length="8.24" shape="1789.19,4416.33 1790.63,4418.31 1791.69,4419.62 1792.89,4420.79 1794.80,4422.31"/>
    </edge>
    <edge id=":node_00x13_3" function="internal">
        <lane id=":node_00x13_3_0" index="0" disallow="tram rail_urban rail rail_electric ship" speed="13.89" length="10.59" shape="1789.19,4416.33 1790.57,4418.92 1790.75,4421.28 1789.74,4423.43 1787.55,4425.36"/>
    </edge>
    <edge id=":node_00x13_4" function="internal">
        <lane id=":node_00x13_4_0" index="0" disallow="tram rail_urban rail rail_electric ship" speed="13.89" length="5.06" shape="1785.74,4422.60 1786.79,4421.68 1787.27,4420.65 1787.19,4419.52 1786.53,4418.28"/>
    </edge>
    <edge id=":node_00x13_5" function="internal">
        <lane id=":node_00x13_5_0" index="0" disallow="tram rail_urban rail rail_electric ship" speed="13.89" length="9.72" shape="1785.74,4422.60 1788.22,4421.33 1790.56,4420.86 1792.75,4421.19 1794.80,4422.31"/>
    </edge>
    <edge id=":node_00x14_0" function="internal">
        <lane id=":node_00x14_0_0" index="0" disallow="tram rail_urban rail rail_electric ship" speed="13.89" length="5.18" shape="1946.96,4544.36 1945.79,4543.65 1944.65,4543.50 1943.53,4543.91 1942.43,4544.88"/>
    </edge>
    <edge id=":node_00x14_1" function="internal">
        <lane id=":node_00x14_1_0" index="0" disallow="tram rail_urban rail rail_electric ship" speed="13.89" length="9.57" shape="1946.96,4544.36 1939.51,4538.35"/>
    </edge>
    <edge id=":node_00x14_2" function="internal">
        <lane id=":node_00x14_2_0" index="0" disallow="tram rail_urban rail rail_electric ship" speed="13.89" length="9.72" shape="1941.53,4535.73 1949.09,4541.84"/>
    </edge>
    <edge id=":node_00x14_3" function="internal">
        <lane id=":node_00x14_3_0" index="0" disallow="tram rail_urban rail rail_electric ship" speed="13.89" length="10.62" shape="1941.53,4535.73 1943.57,4537.84 1944.40,4540.07 1944.02,4542.41 1942.43,4544.88"/>
    </edge>
    <edge id=":node_00x14_4" function="internal">
        <lane id=":node_00x14_4_0" index="0" disallow="tram rail_urban rail rail_electric ship" speed="13.89" length="5.07" shape="1939.94,4542.71 1940.70,4541.53 1940.88,4540.41 1940.49,4539.35 1939.51,4538.35"/>
    </edge>
    <edge id=":node_00x14_5" function="internal">
        <lane id=":node_00x14_5_0" index="0" disallow="tram rail_urban rail rail_electric ship" speed="13.89" length="10.45" shape="1939.94,4542.71 1942.13,4540.80 1944.39,4540.02 1946.71,4540.37 1949.09,4541.84"/>
    </edge>
    <edge id=":node_00x15_0" function="internal">
        <lane id=":node_00x15_0_0" index="0" disallow="tram rail_urban rail rail_electric ship" speed="13.89" length="5.19" shape="2105.01,4677.34 2103.70,4676.71 2102.56,4676.69 2101.59,4677.29 2100.79,4678.51"/>
    </edge>
    <edge id=":node_00x15_1" function="internal">
        <lane id=":node_00x15_1_0" index="0" disallow="tram rail_urban rail rail_electric ship" speed="13.89" length="9.44" shape="2105.01,4677.34 2097.43,4671.71"/>
    </edge>
    <edge id=":node_00x15_2" function="internal">
        <lane id=":node_00x15_2_0" index="0" disallow="tram rail_urban rail rail_electric ship" speed="13.89" length="9.07" shape="2099.56,4669.19 2106.85,4674.59"/>
    </edge>
    <edge id=":node_00x15_3" function="internal">
        <lane id=":node_00x15_3_0" index="0" disallow="tram rail_urban rail rail_electric ship" speed="13.89" length="10.18" shape="2099.56,4669.19 2101.14,4671.05 2101.87,4673.22 2101.76,4675.70 2100.79,4678.51"/>
    </edge>
    <edge id=":node_00x15_4" function="internal">
        <lane id=":node_00x15_4_0" index="0" disallow="tram rail_urban rail rail_electric ship" speed="13.89" length="5.84" shape="2097.80,4677.10 2098.42,4675.40 2098.56,4673.94 2098.23,4672.71 2097.43,4671.71"/>
    </edge>
    <edge id=":node_00x15_5" function="internal">
        <lane id=":node_00x15_5_0" index="0" disallow="tram rail_urban rail rail_electric ship" speed="13.89" length="11.12" shape="2097.80,4677.10 2099.52,4674.50 2101.59,4673.22 2104.04,4673.25 2106.85,4674.59"/>
    </edge>
    <edge id=":node_00x16_0" function="internal">
        <lane id=":node_00x16_0_0" index="0" disallow="tram rail_urban rail rail_electric ship" speed="13.89" length="7.84" shape="2257.24,4785.19 2257.07,4782.46 2256.67,4780.33 2256.04,4778.79 2255.18,4777.84"/>
    </edge>
    <edge id=":node_00x16_1" function="internal">
        <lane id=":node_00x16_1_0" index="0" disallow="tram rail_urban rail rail_electric ship" speed="13.89" length="13.34" shape="2257.24,4785.19 2257.70,4781.24 2259.25,4779.04 2261.91,4778.60 2265.67,4779.91"/>
    </edge>
    <edge id=":node_00x16_2" function="internal">
        <lane id=":node_00x16_2_0" index="0" disallow="tram rail_urban rail rail_electric ship" speed="13.89" length="5.75" shape="2264.17,4782.85 2262.55,4782.28 2261.41,4782.48 2260.74,4783.42 2260.54,4785.13"/>
    </edge>
    <edge id=":node_00x16_3" function="internal">
        <lane id=":node_00x16_3_0" index="0" disallow="tram rail_urban rail rail_electric ship" speed="13.89" length="10.29" shape="2264.17,4782.85 2255.18,4777.84"/>
    </edge>
    <edge id=":node_00x16_4" function="internal">
        <lane id=":node_00x16_4_0" index="0" disallow="tram rail_urban rail rail_electric ship" speed="13.89" length="9.90" shape="2257.02,4775.10 2265.67,4779.91"/>
    </edge>
    <edge id=":node_00x16_5" function="internal">
        <lane id=":node_00x16_5_0" index="0" disallow="tram rail_urban rail rail_electric ship" speed="13.89" length="10.99" shape="2257.02,4775.10 2258.50,4776.57 2259.58,4778.73 2260.26,4781.59 2260.54,4785.13"/>
    </edge>
    <edge id=":node_00x17_0" function="internal">
        <lane id=":node_00x17_0_0" index="0" disallow="tram rail_urban rail rail_electric ship" speed="13.89" length="9.13" shape="2395.89,4859.79 2398.24,4850.96"/>
    </edge>
    <edge id=":node_00x17_1" function="internal">
        <lane id=":node_00x17_1_0" index="0" disallow="tram rail_urban rail rail_electric ship" speed="13.89" length="30.01" shape="2395.89,4859.79 2390.33,4850.65 2389.67,4846.40 2393.92,4847.04 2403.08,4852.58"/>
    </edge>
    <edge id=":node_00x17_2" function="internal">
        <lane id=":node_00x17_2_0" index="0" disallow="tram rail_urban rail rail_electric ship" speed="13.89" length="10.87" shape="2401.21,4855.30 2397.89,4853.29 2396.35,4853.06 2396.59,4854.60 2398.61,4857.91"/>
    </edge>
    <edge id=":node_00x17_3" function="internal">
        <lane id=":node_00x17_3_0" index="0" disallow="tram rail_urban rail rail_electric ship" speed="13.89" length="5.41" shape="2401.21,4855.30 2400.16,4854.16 2399.79,4853.02 2399.39,4851.93 2398.24,4850.96"/>
    </edge>
    <edge id=":node_00x17_4" function="internal">
        <lane id=":node_00x17_4_0" index="0" disallow="tram rail_urban rail rail_electric ship" speed="13.89" length="5.80" shape="2399.73,4848.02 2400.99,4849.05 2401.48,4850.18 2401.93,4851.37 2403.08,4852.58"/>
    </edge>
    <edge id=":node_00x17_5" function="internal">
        <lane id=":node_00x17_5_0" index="0" disallow="tram rail_urban rail rail_electric ship" speed="13.89" length="11.05" shape="2399.73,4848.02 2401.03,4849.94 2399.77,4852.28 2398.21,4854.96 2398.61,4857.91"/>
    </edge>
    <edge id=":node_00x18_0" function="internal">
        <lane id=":node_00x18_0_0" index="0" disallow="tram rail_urban rail rail_electric ship" speed="13.89" length="6.53" shape="2471.11,4910.71 2472.53,4904.34"/>
    </edge>
    <edge id=":node_00x18_1" function="internal">