<?xml version='1.0' encoding='UTF-8'?>
<edges xmlns:xsi="http://www.w3.org/2001/XMLSchema-instance" version="0.27" xsi:noNamespaceSchemaLocation="http://sumo.dlr.de/xsd/edges_file.xsd">
    <edge disallow="tram rail_urban rail rail_electric ship" dump_speed="9.58" from="node_427" id="-100947955#2" numLanes="1" priority="5" speed="13.89" to="node_7818" type="highway.unclassified" />
    <edge disallow="tram rail_urban rail rail_electric ship" dump_speed="10.1" from="node_450" id="-100956297#0" numLanes="1" priority="5" speed="11.11" to="node_444" type="highway.unclassified" />
    <edge disallow="tram rail_urban rail rail_electric ship" dump_speed="9.84" from="node_727" id="-100956297#1" numLanes="1" priority="5" speed="11.11" to="node_450" type="highway.unclassified" />
    <edge disallow="tram rail_urban rail rail_electric ship" dump_speed="9.79" from="node_446" id="-100956297#2" numLanes="1" priority="5" speed="11.11" to="node_727" type="highway.unclassified" />
    <edge disallow="tram rail_urban rail rail_electric ship" dump_speed="9.41" from="node_443" id="-100956297#3" numLanes="1" priority="5" speed="11.11" to="node_446" type="highway.unclassified" />
    <edge disallow="tram rail_urban rail rail_electric ship" dump_speed="-1.0" from="node_724" id="-100956298#0" numLanes="1" priority="5" speed="11.11" to="node_449" type="highway.unclassified" />
    <edge disallow="tram rail_urban rail rail_electric ship" dump_speed="10.02" from="node_448" id="-100956298#1" numLanes="1" priority="5" speed="11.11" to="node_724" type="highway.unclassified" />
    <edge disallow="tram rail_urban rail rail_electric ship" dump_speed="10.97" from="node_445" id="-100956300#0" numLanes="1" priority="5" speed="13.89" to="node_441" type="highway.unclassified" />
    <edge disallow="tram rail_urban rail rail_electric ship" dump_speed="11.05" from="node_447" id="-100956300#1" numLanes="1" priority="5" speed="13.89" to="node_445" type="highway.unclassified" />
    <edge disallow="tram rail_urban rail rail_electric ship" dump_speed="11.22" from="node_449" id="-100956300#2" numLanes="1" priority="5" speed="13.89" to="node_447" type="highway.unclassified" />
    <edge disallow="tram rail_urban rail rail_electric ship" dump_speed="10.75" from="node_7820" id="-100956300#3" numLanes="1" priority="5" speed="13.89" to="node_449" type="highway.unclassified" />
    <edge disallow="tram rail_urban rail rail_electric ship" dump_speed="12.15" from="node_450" id="-100956302#1" numLanes="1" priority="5" speed="13.89" to="node_446" type="highway.unclassified" />
    <edge disallow="tram rail_urban rail rail_electric ship" dump_speed="9.9" from="node_448" id="-100956303#0" numLanes="1" priority="4" speed="13.89" to="node_442" type="highway.residential" />
    <edge disallow="tram rail_urban rail rail_electric ship" dump_speed="10.22" from="node_443" id="-100956303#1" numLanes="1" priority="4" speed="13.89" to="node_448" type="highway.residential" />
    <edge disallow="tram rail_urban rail rail_electric ship" dump_speed="11.94" from="node_444" id="-100956303#2" numLanes="1" priority="4" speed="13.89" to="node_443" type="highway.residential" />
    <edge disallow="tram rail_urban rail rail_electric ship" dump_speed="6.48" from="node_447" id="-100956303#3" numLanes="1" priority="4" speed="13.89" to="node_444" type="highway.residential" />
    <edge disallow="tram rail_urban rail rail_electric ship" dump_speed="12.58" from="node_442" id="-100956304#0" numLanes="1" priority="5" speed="13.89" to="node_445" type="highway.unclassified" />
    <edge disallow="tram rail_urban rail rail_electric ship" dump_speed="10.3" from="node_1171" id="-100956304#1" numLanes="1" priority="5" speed="13.89" to="node_442" type="highway.unclassified" />
    <edge disallow="tram rail_urban rail rail_electric ship" dump_speed="12.41" from="node_2034" id="-100956304#2" numLanes="1" priority="5" speed="13.89" to="node_1171" type="highway.unclassified" />
    <edge disallow="tram rail_urban rail rail_electric ship" dump_speed="9.46" from="node_1163" id="-100956304#4" numLanes="1" priority="5" speed="13.89" to="node_2034" type="highway.unclassified" />
    <edge disallow="tram rail_urban rail rail_electric ship" dump_speed="8.78" from="node_1160" id="-100956304#6" numLanes="1" priority="5" speed="13.89" to="node_1163" type="highway.unclassified" />
    <edge disallow="tram rail_urban rail rail_electric ship" dump_speed="9.3" from="node_6145" id="-100956304#7" numLanes="1" priority="5" speed="13.89" to="node_1160" type="highway.unclassified" />
    <edge disallow="tram rail_urban rail rail_electric ship" dump_speed="0.7" from="node_453" id="-100971955" numLanes="1" priority="4" speed="13.89" to="node_456" type="highway.residential" />
    <edge disallow="tram rail_urban rail rail_electric ship" dump_speed="9.01" from="node_457" id="-100971977" numLanes="1" priority="4" speed="13.89" to="node_455" type="highway.residential" />
    <edge disallow="tram rail_urban rail rail_electric ship" dump_speed="0.98" from="node_459" id="-100971979#0" numLanes="1" priority="4" speed="13.89" to="node_451" type="highway.residential" />
    <edge disallow="tram rail_urban rail rail_electric ship" dump_speed="0.88" from="node_456" id="-100971979#1" numLanes="1" priority="4" speed="13.89" to="node_459" type="highway.residential" />
    <edge disallow="tram rail_urban rail rail_electric ship" dump_speed="7.95" from="node_457" id="-100971989#0" numLanes="1" priority="4" speed="13.89" to="node_454" type="highway.residential" />
    <edge disallow="tram rail_urban rail rail_electric ship" dump_speed="10.05" from="node_7268" id="-100971989#1" numLanes="1" priority="4" speed="13.89" to="node_457" type="highway.residential" />
    <edge disallow="tram rail_urban rail rail_electric ship" dump_speed="0.08" from="node_473" id="-108742420" numLanes="1" priority="4" speed="13.89" to="node_472" type="highway.residential" />
    <edge disallow="tram rail_urban rail rail_electric ship" dump_speed="11.47" from="node_2009" id="-109859931" numLanes="1" priority="4" speed="13.89" to="node_477" type="highway.residential" />
    <edge disallow="tram rail_urban rail rail_electric ship" dump_speed="6.56" from="node_498" id="-115311793" numLanes="1" priority="4" speed="13.89" to="node_492" type="highway.residential" />
    <edge disallow="tram rail_urban rail rail_electric ship" dump_speed="3.42" from="node_499" id="-115315671" numLanes="1" priority="4" speed="13.89" to="node_498" type="highway.residential" />
    <edge disallow="tram rail_urban rail rail_electric ship" dump_speed="1.78" from="node_511" id="-117208309" numLanes="1" priority="4" speed="13.89" to="node_512" type="highway.residential" />
    <edge disallow="tram rail_urban rail rail_electric ship" dump_speed="9.26" from="node_500" id="-117208318" numLanes="1" priority="4" speed="13.89" to="node_508" type="highway.residential" />
    <edge disallow="tram rail_urban rail rail_electric ship" dump_speed="8.14" from="node_517" id="-117208322" numLanes="1" priority="4" speed="13.89" to="node_523" type="highway.residential" />
    <edge disallow="tram rail_urban rail rail_electric ship" dump_speed="10.6" from="node_515" id="-117208334" numLanes="1" priority="4" speed="13.89" to="node_521" type="highway.residential" />
    <edge disallow="tram rail_urban rail rail_electric ship" dump_speed="6.02" from="node_7824" id="-118261378" numLanes="1" priority="5" speed="13.89" to="node_532" type="highway.unclassified" />
    <edge disallow="tram rail_urban rail rail_electric ship" dump_speed="7.83" from="node_534" id="-118261380#0" numLanes="1" priority="5" speed="13.89" to="node_535" type="highway.unclassified" />
    <edge disallow="tram rail_urban rail rail_electric ship" dump_speed="9.99" from="node_539" id="-118261380#2" numLanes="1" priority="5" speed="13.89" to="node_534" type="highway.unclassified" />
    <edge disallow="tram rail_urban rail rail_electric ship" dump_speed="4.8" from="node_541" id="-118261380#3" numLanes="1" priority="5" speed="13.89" to="node_539" type="highway.unclassified" />
    <edge disallow="tram rail_urban rail rail_electric ship" dump_speed="11.52" from="node_537" id="-118261385#0" numLanes="1" priority="5" speed="13.89" to="node_7714" type="highway.unclassified" />
    <edge disallow="tram rail_urban rail rail_electric ship" dump_speed="4.44" from="node_533" id="-118261385#1" numLanes="1" priority="5" speed="13.89" to="node_537" type="highway.unclassified" />
    <edge disallow="tram rail_urban rail rail_electric ship" dump_speed="11.92" from="node_539" id="-118261385#2" numLanes="1" priority="5" speed="13.89" to="node_533" type="highway.unclassified" />
    <edge disallow="tram rail_urban rail rail_electric ship" dump_speed="0.39" from="node_4085" id="-118261910#0" numLanes="1" priority="4" speed="13.89" to="node_544" type="highway.residential" />
    <edge disallow="tram rail_urban rail rail_electric ship" dump_speed="0.4" from="node_548" id="-118261910#1" numLanes="1" priority="4" speed="13.89" to="node_4085" type="highway.residential" />
    <edge disallow="tram rail_urban rail rail_electric ship" dump_speed="11.02" from="node_7786" id="-118261910#2" numLanes="1" priority="4" speed="13.89" to="node_548" type="highway.residential" />
    <edge disallow="tram rail_urban rail rail_electric ship" dump_speed="8.76" from="node_2005" id="-118261910#3" numLanes="1" priority="4" speed="13.89" to="node_7786" type="highway.residential" />
    <edge disallow="tram rail_urban rail rail_electric ship" dump_speed="9.4" from="node_547" id="-118261910#4" numLanes="1" priority="4" speed="13.89" to="node_2005" type="highway.residential" />
    <edge disallow="tram rail_urban rail rail_electric ship" dump_speed="10.2" from="node_7785" id="-118261910#5" numLanes="1" priority="4" speed="13.89" to="node_547" type="highway.residential" />
    <edge disallow="tram rail_urban rail rail_electric ship" dump_speed="5.49" from="node_2004" id="-118261910#6" numLanes="1" priority="4" speed="13.89" to="node_7785" type="highway.residential" />
    <edge disallow="tram rail_urban rail rail_electric ship" dump_speed="0.4" from="node_4085" id="-118261910#7" numLanes="1" priority="4" speed="13.89" to="node_2004" type="highway.residential" />
    <edge disallow="tram rail_urban rail rail_electric ship" dump_speed="13.33" from="node_4103" id="-118261912" numLanes="1" priority="5" speed="13.89" to="node_4105" type="highway.unclassified" />
    <edge disallow="tram rail_urban rail rail_electric ship" dump_speed="19.75" from="node_2725" id="-118679933#1" numLanes="1" priority="6" speed="22.22" to="node_529" type="highway.tertiary" />
    <edge disallow="tram rail_urban rail rail_electric ship" dump_speed="0.43" from="node_550" id="-119133883" numLanes="1" priority="4" speed="13.89" to="node_552" type="highway.residential" />
    <edge disallow="tram rail_urban rail rail_electric ship" dump_speed="7.23" from="node_549" id="-119133887" numLanes="1" priority="4" speed="13.89" to="node_551" type="highway.residential" />
    <edge disallow="tram rail_urban rail rail_electric ship" dump_speed="10.68" from="node_563" id="-119550130#0" numLanes="1" priority="4" speed="13.89" to="node_564" type="highway.residential" />
    <edge disallow="tram rail_urban rail rail_electric ship" dump_speed="5.66" from="node_567" id="-119550130#1" numLanes="1" priority="4" speed="13.89" to="node_563" type="highway.residential" />
    <edge disallow="tram rail_urban rail rail_electric ship" dump_speed="5.03" from="node_566" id="-119550141" numLanes="1" priority="4" speed="13.89" to="node_562" type="highway.residential" />
    <edge disallow="tram rail_urban rail rail_electric ship" dump_speed="8.71" from="node_563" id="-119550148#0" numLanes="1" priority="4" speed="13.89" to="node_560" type="highway.residential" />
    <edge disallow="tram rail_urban rail rail_electric ship" dump_speed="10.91" from="node_565" id="-119550148#1" numLanes="1" priority="4" speed="13.89" to="node_563" type="highway.residential" />
    <edge disallow="tram rail_urban rail rail_electric ship" dump_speed="11.7" from="node_557" id="-119550148#2" numLanes="1" priority="4" speed="13.89" to="node_565" type="highway.residential" />
    <edge disallow="tram rail_urban rail rail_electric ship" dump_speed="11.41" from="node_562" id="-119550148#3" numLanes="1" priority="4" speed="13.89" to="node_557" type="highway.residential" />
    <edge disallow="tram rail_urban rail rail_electric ship" dump_speed="10.62" from="node_568" id="-119550148#4" numLanes="1" priority="4" speed="13.89" to="node_562" type="highway.residential" />
    <edge disallow="tram rail_urban rail rail_electric ship" dump_speed="12.15" from="node_564" id="-119550151#0" numLanes="1" priority="4" speed="13.89" to="node_556" type="highway.residential" />
    <edge disallow="tram rail_urban rail rail_electric ship" dump_speed="5.87" from="node_568" id="-119550151#1" numLanes="1" priority="4" speed="13.89" to="node_564" type="highway.residential" />
    <edge disallow="tram rail_urban rail rail_electric ship" dump_speed="5.57" from="node_559" id="-119550151#2" numLanes="1" priority="4" speed="13.89" to="node_568" type="highway.residential" />
    <edge disallow="tram rail_urban rail rail_electric ship" dump_speed="7.64" from="node_561" id="-119550154" numLanes="1" priority="4" speed="13.89" to="node_565" type="highway.residential" />
    <edge disallow="tram rail_urban rail rail_electric ship" dump_speed="5.82" from="node_558" id="-119550161" numLanes="1" priority="4" speed="13.89" to="node_557" type="highway.residential" />
    <edge disallow="tram rail_urban rail rail_electric ship" dump_speed="1.5" from="node_570" id="-120113816#0" numLanes="1" priority="4" speed="13.89" to="node_1692" type="highway.residential" />
    <edge disallow="tram rail_urban rail rail_electric ship" dump_speed="5.73" from="node_571" id="-120113816#2" numLanes="1" priority="4" speed="13.89" to="node_570" type="highway.residential" />
    <edge disallow="tram rail_urban rail rail_electric ship" dump_speed="-1.0" from="node_5839" id="-120113834#0" numLanes="1" priority="4" speed="13.89" to="node_572" type="highway.residential" />
    <edge disallow="tram rail_urban rail rail_electric ship" dump_speed="5.99" from="node_569" id="-120113834#1" numLanes="1" priority="4" speed="13.89" to="node_5839" type="highway.residential" />
    <edge disallow="tram rail_urban rail rail_electric ship" dump_speed="8.29" from="node_569" id="-120113837" numLanes="1" priority="5" speed="13.89" to="node_573" type="highway.unclassified" />
    <edge disallow="tram rail_urban rail rail_electric ship" dump_speed="5.43" from="node_4142" id="-120261188" numLanes="1" priority="4" speed="13.89" to="node_574" type="highway.residential" />
    <edge disallow="tram rail_urban rail rail_electric ship" dump_speed="6.77" from="node_575" id="-120385132" numLanes="1" priority="4" speed="13.89" to="node_582" type="highway.residential" />
    <edge disallow="tram rail_urban rail rail_electric ship" dump_speed="8.81" from="node_576" id="-120385142#0" numLanes="1" priority="4" speed="13.89" to="node_578" type="highway.residential" />
    <edge disallow="tram rail_urban rail rail_electric ship" dump_speed="5.79" from="node_581" id="-120385142#1" numLanes="1" priority="4" speed="13.89" to="node_576" type="highway.residential" />
    <edge disallow="tram rail_urban rail rail_electric ship" dump_speed="4.89" from="node_577" id="-120385146" numLanes="1" priority="4" speed="13.89" to="node_576" type="highway.residential" />
    <edge disallow="tram rail_urban rail rail_electric ship" dump_speed="11.37" from="node_582" id="-120385156#0" numLanes="1" priority="4" speed="13.89" to="node_3963" type="highway.residential" />
    <edge disallow="tram rail_urban rail rail_electric ship" dump_speed="8.57" from="node_3964" id="-120385156#1" numLanes="1" priority="4" speed="13.89" to="node_582" type="highway.residential" />
    <edge disallow="tram rail_urban rail rail_electric ship" dump_speed="4.93" from="node_580" id="-120385177" numLanes="1" priority="4" speed="13.89" to="node_3924" type="highway.residential" />
    <edge disallow="tram rail_urban rail rail_electric ship" dump_speed="8.24" from="node_584" id="-121820318" numLanes="1" priority="4" speed="13.89" to="node_1979" type="highway.residential" />
    <edge disallow="tram rail_urban rail rail_electric ship" dump_speed="10.44" from="node_584" id="-121820322#0" numLanes="1" priority="4" speed="13.89" to="node_587" type="highway.residential" />
    <edge disallow="tram rail_urban rail rail_electric ship" dump_speed="2.54" from="node_585" id="-121820322#1" numLanes="1" priority="4" speed="13.89" to="node_584" type="highway.residential" />
    <edge disallow="tram rail_urban rail rail_electric ship" dump_speed="9.58" from="node_7827" id="-121820328" numLanes="1" priority="4" speed="13.89" to="node_590" type="highway.residential" />
    <edge disallow="tram rail_urban rail rail_electric ship" dump_speed="13.39" from="node_609" id="-123120699" numLanes="1" priority="4" speed="13.89" to="node_608" type="highway.residential" />
    <edge disallow="tram rail_urban rail rail_electric ship" dump_speed="8.07" from="node_613" id="-123343996#0" numLanes="1" priority="4" speed="13.89" to="node_612" type="highway.residential" />
    <edge disallow="tram rail_urban rail rail_electric ship" dump_speed="9.99" from="node_2294" id="-123343996#1" numLanes="1" priority="4" speed="13.89" to="node_613" type="highway.residential" />
    <edge disallow="tram rail_urban rail rail_electric ship" dump_speed="10.19" from="node_7828" id="-123343996#2" numLanes="1" priority="4" speed="13.89" to="node_2294" type="highway.residential" />
    <edge disallow="tram rail_urban rail rail_electric ship" dump_speed="10.08" from="node_610" id="-123343997" numLanes="1" priority="4" speed="13.89" to="node_613" type="highway.residential" />
    <edge disallow="tram rail_urban rail rail_electric ship" dump_speed="9.04" from="node_2293" id="-123343998#0" numLanes="1" priority="4" speed="13.89" to="node_7828" type="highway.residential" />
    <edge disallow="tram rail_urban rail rail_electric ship" dump_speed="11.11" from="node_610" id="-123343998#1" numLanes="1" priority="4" speed="13.89" to="node_2293" type="highway.residential" />
    <edge disallow="tram rail_urban rail rail_electric ship" dump_speed="11.78" from="node_612" id="-123343998#2" numLanes="1" priority="4" speed="13.89" to="node_610" type="highway.residential" />
    <edge disallow="tram rail_urban rail rail_electric ship" dump_speed="6.7" from="node_611" id="-123343998#3" numLanes="1" priority="4" speed="13.89" to="node_612" type="highway.residential" />
    <edge disallow="tram rail_urban rail rail_electric ship" dump_speed="9.96" from="node_614" id="-123421262" numLanes="1" priority="4" speed="13.89" to="node_615" type="highway.residential" />
    <edge disallow="tram rail_urban rail rail_electric ship" dump_speed="1.06" from="node_624" id="-125592721#1" numLanes="1" priority="4" speed="13.89" to="node_623" type="highway.residential" />
    <edge disallow="tram rail_urban rail rail_electric ship" dump_speed="12.61" from="node_638" id="-127732569" numLanes="1" priority="4" speed="13.89" to="node_640" type="highway.residential" />
    <edge disallow="tram rail_urban rail rail_electric ship" dump_speed="0.75" from="node_642" id="-127732570#0" numLanes="1" priority="4" speed="13.89" to="node_641" type="highway.residential" />
    <edge disallow="tram rail_urban rail rail_electric ship" dump_speed="12.03" from="node_637" id="-127732570#1" numLanes="1" priority="4" speed="13.89" to="node_642" type="highway.residential" />
    <edge disallow="tram rail_urban rail rail_electric ship" dump_speed="12.03" from="node_639" id="-127732570#2" numLanes="1" priority="4" speed="13.89" to="node_637" type="highway.residential" />
    <edge disallow="tram rail_urban rail rail_electric ship" dump_speed="10.35" from="node_636" id="-127732571" numLanes="1" priority="4" speed="13.89" to="node_642" type="highway.residential" />
    <edge disallow="tram rail_urban rail rail_electric ship" dump_speed="0.91" from="node_646" id="-127979767" numLanes="1" priority="4" speed="13.89" to="node_648" type="highway.residential" />
    <edge disallow="tram rail_urban rail rail_electric ship" dump_speed="13.3" from="node_8133" id="-127979768" numLanes="1" priority="4" speed="13.89" to="node_647" type="highway.residential" />
    <edge disallow="tram rail_urban rail rail_electric ship" dump_speed="-1.0" from="node_649" id="-127983894" numLanes="1" priority="4" speed="13.89" to="node_650" type="highway.residential" />
    <edge disallow="tram rail_urban rail rail_electric ship" dump_speed="10.54" from="node_8211" id="-132907330#0" numLanes="1" priority="5" speed="13.89" to="node_654" type="highway.unclassified" />
    <edge disallow="tram rail_urban rail rail_electric ship" dump_speed="11.62" from="node_1121" id="-132907330#2" numLanes="1" priority="5" speed="13.89" to="node_8211" type="highway.unclassified" />
    <edge disallow="tram rail_urban rail rail_electric ship" dump_speed="10.79" from="node_534" id="-132911788" numLanes="1" priority="5" speed="13.89" to="node_532" type="highway.unclassified" />
    <edge disallow="tram rail_urban rail rail_electric ship" dump_speed="5.58" from="node_532" id="-132911789" numLanes="1" priority="5" speed="13.89" to="node_537" type="highway.unclassified" />
    <edge disallow="tram rail_urban rail rail_electric ship" dump_speed="9.54" from="node_671" id="-132911879" numLanes="1" priority="5" speed="13.89" to="node_7824" type="highway.unclassified" />
    <edge disallow="tram rail_urban rail rail_electric ship" dump_speed="9.55" from="node_5037" id="-132917601#1" numLanes="1" priority="4" speed="13.89" to="node_677" type="highway.residential" />
    <edge disallow="tram rail_urban rail rail_electric ship" dump_speed="2.05" from="node_5046" id="-132917601#10" numLanes="1" priority="4" speed="13.89" to="node_5047" type="highway.residential" />
    <edge disallow="tram rail_urban rail rail_electric ship" dump_speed="8.22" from="node_7180" id="-132917601#2" numLanes="1" priority="4" speed="13.89" to="node_5037" type="highway.residential" />
    <edge disallow="tram rail_urban rail rail_electric ship" dump_speed="10.34" from="node_7179" id="-132917601#3" numLanes="1" priority="4" speed="13.89" to="node_7180" type="highway.residential" />
    <edge disallow="tram rail_urban rail rail_electric ship" dump_speed="3.98" from="node_5030" id="-132917601#4" numLanes="1" priority="4" speed="13.89" to="node_7179" type="highway.residential" />
    <edge disallow="tram rail_urban rail rail_electric ship" dump_speed="5.3" from="node_5050" id="-132917601#6" numLanes="1" priority="4" speed="13.89" to="node_5030" type="highway.residential" />
    <edge disallow="tram rail_urban rail rail_electric ship" dump_speed="5.45" from="node_5035" id="-132917601#7" numLanes="1" priority="4" speed="13.89" to="node_5050" type="highway.residential" />
    <edge disallow="tram rail_urban rail rail_electric ship" dump_speed="9.8" from="node_5047" id="-132917601#9" numLanes="1" priority="4" speed="13.89" to="node_5035" type="highway.residential" />
    <edge disallow="tram rail_urban rail rail_electric ship" dump_speed="11.94" from="node_700" id="-136050627" numLanes="1" priority="5" speed="13.89" to="node_6924" type="highway.unclassified" />
    <edge disallow="tram rail_urban rail rail_electric ship" dump_speed="0.6" from="node_699" id="-136050628" numLanes="2" priority="7" speed="27.78" to="node_697" type="highway.secondary" />
    <edge disallow="tram rail_urban rail rail_electric ship" dump_speed="7.25" from="node_1445" id="-136050631#7" numLanes="1" priority="5" speed="13.89" to="node_699" type="highway.unclassified" />
    <edge disallow="tram rail_urban rail rail_electric ship" dump_speed="10.1" from="node_6924" id="-136050633" numLanes="1" priority="5" speed="13.89" to="node_702" type="highway.unclassified" />
    <edge disallow="tram rail_urban rail rail_electric ship" dump_speed="-1.0" from="node_7832" id="-136390784" numLanes="1" priority="5" speed="13.89" to="node_714" type="highway.unclassified" />
    <edge disallow="tram rail_urban rail rail_electric ship" dump_speed="11.53" from="node_705" id="-136390797#0" numLanes="1" priority="5" speed="13.89" to="node_703" type="highway.unclassified" />
    <edge disallow="tram rail_urban rail rail_electric ship" dump_speed="11.26" from="node_7831" id="-136390797#1" numLanes="1" priority="5" speed="13.89" to="node_705" type="highway.unclassified" />
    <edge disallow="tram rail_urban rail rail_electric ship" dump_speed="8.96" from="node_704" id="-136390797#3" numLanes="1" priority="5" speed="13.89" to="node_7831" type="highway.unclassified" />
    <edge disallow="tram rail_urban rail rail_electric ship" dump_speed="-1.0" from="node_705" id="-136390810" numLanes="1" priority="5" speed="13.89" to="node_717" type="highway.unclassified" />
    <edge disallow="tram rail_urban rail rail_electric ship" dump_speed="13.66" from="node_7831" id="-136390813" numLanes="1" priority="5" speed="13.89" to="node_709" type="highway.unclassified" />
    <edge disallow="tram rail_urban rail rail_electric ship" dump_speed="11.03" from="node_2035" id="-136491553#0" numLanes="1" priority="5" speed="13.89" to="node_1163" type="highway.unclassified" />
    <edge disallow="tram rail_urban rail rail_electric ship" dump_speed="11.72" from="node_1169" id="-136491553#1" numLanes="1" priority="5" speed="13.89" to="node_2035" type="highway.unclassified" />
    <edge disallow="tram rail_urban rail rail_electric ship" dump_speed="12.85" from="node_1173" id="-136491553#2" numLanes="1" priority="5" speed="13.89" to="node_1169" type="highway.unclassified" />
    <edge disallow="tram rail_urban rail rail_electric ship" dump_speed="11.54" from="node_1175" id="-136491553#3" numLanes="1" priority="5" speed="13.89" to="node_1173" type="highway.unclassified" />
    <edge disallow="tram rail_urban rail rail_electric ship" dump_speed="12.14" from="node_1176" id="-136491553#4" numLanes="1" priority="5" speed="13.89" to="node_1175" type="highway.unclassified" />
    <edge disallow="tram rail_urban rail rail_electric ship" dump_speed="8.87" from="node_723" id="-136491553#5" numLanes="1" priority="5" speed="13.89" to="node_1176" type="highway.unclassified" />
    <edge disallow="tram rail_urban rail rail_electric ship" dump_speed="0.91" from="node_725" id="-136491553#6" numLanes="1" priority="5" speed="13.89" to="node_723" type="highway.unclassified" />
    <edge disallow="tram rail_urban rail rail_electric ship" dump_speed="3.92" from="node_721" id="-136491553#8" numLanes="1" priority="5" speed="13.89" to="node_725" type="highway.unclassified" />
    <edge disallow="tram rail_urban rail rail_electric ship" dump_speed="1.96" from="node_719" id="-136491554" numLanes="1" priority="5" speed="13.89" to="node_725" type="highway.unclassified" />
    <edge disallow="tram rail_urban rail rail_electric ship" dump_speed="10.6" from="node_720" id="-136491557#1" numLanes="1" priority="4" speed="13.89" to="node_722" type="highway.residential" />
    <edge disallow="tram rail_urban rail rail_electric ship" dump_speed="9.1" from="node_724" id="-136491559#0" numLanes="1" priority="5" speed="13.89" to="node_727" type="highway.unclassified" />
    <edge disallow="tram rail_urban rail rail_electric ship" dump_speed="11.44" from="node_1175" id="-136491559#1" numLanes="1" priority="5" speed="13.89" to="node_724" type="highway.unclassified" />
    <edge disallow="tram rail_urban rail rail_electric ship" dump_speed="8.36" from="node_731" id="-136962285#0" numLanes="1" priority="4" speed="13.89" to="node_730" type="highway.residential" />
    <edge disallow="tram rail_urban rail rail_electric ship" dump_speed="6.44" from="node_728" id="-136962285#1" numLanes="1" priority="4" speed="13.89" to="node_731" type="highway.residential" />
    <edge disallow="tram rail_urban rail rail_electric ship" dump_speed="5.79" from="node_729" id="-136962286" numLanes="1" priority="4" speed="13.89" to="node_731" type="highway.residential" />
    <edge disallow="tram rail_urban rail rail_electric ship" dump_speed="9.49" from="node_1002" id="-140647937#0" numLanes="1" priority="5" speed="13.89" to="node_749" type="highway.unclassified" />
    <edge disallow="tram rail_urban rail rail_electric ship" dump_speed="11.4" from="node_745" id="-140647937#1" numLanes="1" priority="5" speed="13.89" to="node_1002" type="highway.unclassified" />
    <edge disallow="tram rail_urban rail rail_electric ship" dump_speed="4.03" from="node_1008" id="-140647938#0" numLanes="1" priority="5" speed="13.89" to="node_735" type="highway.unclassified" />
    <edge disallow="tram rail_urban rail rail_electric ship" dump_speed="9.4" from="node_7833" id="-140647938#2" numLanes="1" priority="5" speed="13.89" to="node_1008" type="highway.unclassified" />
    <edge disallow="tram rail_urban rail rail_electric ship" dump_speed="6.41" from="node_750" id="-141029609" numLanes="1" priority="4" speed="13.89" to="node_751" type="highway.residential" />
    <edge disallow="tram rail_urban rail rail_electric ship" dump_speed="6.69" from="node_752" id="-141029610" numLanes="1" priority="4" speed="13.89" to="node_751" type="highway.residential" />
    <edge disallow="tram rail_urban rail rail_electric ship" dump_speed="6.84" from="node_753" id="-141030050" numLanes="1" priority="4" speed="13.89" to="node_754" type="highway.residential" />
    <edge disallow="tram rail_urban rail rail_electric ship" dump_speed="8.27" from="node_754" id="-141030051#0" numLanes="1" priority="4" speed="13.89" to="node_756" type="highway.residential" />