<?xml version='1.0' encoding='UTF-8'?>
<nodes xmlns:xsi="http://www.w3.org/2001/XMLSchema-instance" version="0.27" xsi:noNamespaceSchemaLocation="http://sumo.dlr.de/xsd/nodes_file.xsd">
    <location convBoundary="2208.92,522.44,21219.92,15402.46" netOffset="-224973.31,-2700122.99" origBoundary="54.286966,24.391306,54.609531,24.591038" projParameter="+proj=utm +zone=40 +ellps=WGS84 +datum=WGS84 +units=m +no_defs" />

    <node id="node_0" type="priority" x="38988.0" y="-24987.0" />
    <node id="node_1" type="priority" x="12697.0" y="21455.0" />
    <node id="node_2" type="priority" x="5229.4" y="21775.0" />
    <node id="node_3" tl="GS_1003388266" type="traffic_light" x="-5542.5" y="808.76" />
    <node id="node_4" type="priority" x="-202.25" y="-368.75" />
    <node id="node_5" type="priority" x="-5717.3" y="816.51" />
    <node id="node_6" tl="GS_1003388319" type="traffic_light" x="38.367" y="-366.5" />
    <node id="node_7" type="priority" x="-12396.0" y="24853.0" />
    <node id="node_8" type="priority" x="-9619.6" y="23632.0" />
    <node id="node_9" type="priority" x="-780.96" y="15260.0" />
    <node id="node_10" type="priority" x="-42636.0" y="6179.2" />
    <node id="node_11" type="priority" x="-42497.0" y="6088.6" />
    <node id="node_12" type="priority" x="-50715.0" y="-1255.2" />
    <node id="node_13" type="priority" x="-44961.0" y="-95.197" />
    <node id="node_14" type="unregulated" x="-47606.0" y="1248.2" />
    <node id="node_15" type="unregulated" x="-47201.0" y="802.86" />
    <node id="node_16" type="priority" x="-48791.0" y="-1067.5" />
    <node id="node_17" type="priority" x="48958.0" y="-20601.0" />
    <node id="node_18" type="priority" x="48817.0" y="-20685.0" />
    <node id="node_19" type="priority" x="-2497.7" y="21585.0" />
    <node id="node_20" type="priority" x="-2612.5" y="21351.0" />
    <node id="node_21" type="priority" x="-2666.9" y="21538.0" />
    <node id="node_22" type="priority" x="-16471.0" y="22001.0" />
    <node id="node_23" type="priority" x="-2365.1" y="21619.0" />
    <node id="node_24" type="priority" x="-16525.0" y="22247.0" />
    <node id="node_25" type="priority" x="-19809.0" y="18015.0" />
    <node id="node_26" type="priority" x="-21869.0" y="13411.0" />
    <node id="node_27" type="priority" x="-40972.0" y="5814.5" />
    <node id="node_28" type="priority" x="-25599.0" y="10336.0" />
    <node id="node_29" type="priority" x="-21476.0" y="16791.0" />
    <node id="node_30" type="priority" x="-20044.0" y="18077.0" />
    <node id="node_31" type="priority" x="-21606.0" y="13727.0" />
    <node id="node_32" type="priority" x="-21299.0" y="16684.0" />
    <node id="node_33" type="priority" x="-21495.0" y="13489.0" />
    <node id="node_34" type="priority" x="-21358.0" y="16811.0" />
    <node id="node_35" type="priority" x="-21782.0" y="13692.0" />
    <node id="node_36" type="priority" x="-14123.0" y="22884.0" />
    <node id="node_37" type="priority" x="-13184.0" y="26355.0" />
    <node id="node_38" type="priority" x="-14802.0" y="23754.0" />
    <node id="node_39" type="priority" x="-18028.0" y="22072.0" />
    <node id="node_40" type="priority" x="-13488.0" y="25042.0" />
    <node id="node_41" type="priority" x="-15058.0" y="25178.0" />
    <node id="node_42" type="priority" x="-14416.0" y="23906.0" />
    <node id="node_43" type="priority" x="-13286.0" y="24238.0" />
    <node id="node_44" type="priority" x="-15724.0" y="23419.0" />
    <node id="node_45" type="priority" x="-13901.0" y="23133.0" />
    <node id="node_46" type="priority" x="-18437.0" y="20158.0" />
    <node id="node_47" type="priority" x="-18629.0" y="20127.0" />
    <node id="node_48" type="priority" x="-18446.0" y="20117.0" />
    <node id="node_49" type="priority" x="-18401.0" y="20245.0" />
    <node id="node_50" type="priority" x="-18530.0" y="20036.0" />
    <node id="node_51" type="priority" x="-18563.0" y="20037.0" />
    <node id="node_52" type="priority" x="-18495.0" y="20228.0" />
    <node id="node_53" type="priority" x="-18774.0" y="19971.0" />
    <node id="node_54" type="priority" x="-17212.0" y="16145.0" />
    <node id="node_55" type="priority" x="-17333.0" y="16142.0" />
    <node id="node_56" type="priority" x="8293.2" y="9239.8" />
    <node id="node_57" type="priority" x="-19682.0" y="-2358.3" />
    <node id="node_58" type="priority" x="-18815.0" y="-2134.0" />
    <node id="node_59" type="priority" x="-19395.0" y="-2455.7" />
    <node id="node_60" type="priority" x="-18793.0" y="-1980.8" />
    <node id="node_61" type="priority" x="-19911.0" y="-2685.7" />
    <node id="node_62" type="priority" x="-19898.0" y="-2494.4" />
    <node id="node_63" type="priority" x="-19654.0" y="-2846.7" />
    <node id="node_64" type="priority" x="-19470.0" y="-2279.4" />
    <node id="node_65" type="priority" x="-19453.0" y="-2689.3" />
    <node id="node_66" type="priority" x="-18970.0" y="-2124.2" />
    <node id="node_67" type="priority" x="-19782.0" y="-2778.6" />
    <node id="node_68" type="priority" x="-21526.0" y="-4334.4" />
    <node id="node_69" type="priority" x="-20465.0" y="-3468.8" />
    <node id="node_70" type="priority" x="-24682.0" y="-7882.3" />
    <node id="node_71" type="priority" x="-25155.0" y="-7917.7" />
    <node id="node_72" type="priority" x="-23398.0" y="-5911.3" />
    <node id="node_73" type="priority" x="-26248.0" y="-8481.4" />
    <node id="node_74" type="priority" x="-23490.0" y="-5457.8" />
    <node id="node_75" type="priority" x="-24004.0" y="-5831.5" />
    <node id="node_76" type="unregulated" x="-21674.0" y="-9933.5" />
    <node id="node_77" type="priority" x="-25221.0" y="-7564.7" />
    <node id="node_78" type="priority" x="-24891.0" y="-6913.1" />
    <node id="node_79" type="priority" x="-26112.0" y="-7955.8" />
    <node id="node_80" type="unregulated" x="-21775.0" y="-9887.9" />
    <node id="node_81" type="priority" x="-25381.0" y="-7550.1" />
    <node id="node_82" type="priority" x="-26296.0" y="-8364.7" />
    <node id="node_83" type="priority" x="-25865.0" y="-8056.8" />
    <node id="node_84" type="priority" x="-25520.0" y="-7634.8" />
    <node id="node_85" type="priority" x="-32749.0" y="-6662.8" />
    <node id="node_86" type="priority" x="-31744.0" y="-5574.2" />
    <node id="node_87" type="priority" x="-31956.0" y="-5906.9" />
    <node id="node_88" type="priority" x="-25289.0" y="-8854.0" />
    <node id="node_89" type="priority" x="-24570.0" y="-7670.5" />
    <node id="node_90" type="priority" x="-24724.0" y="-8035.7" />
    <node id="node_91" type="priority" x="-25205.0" y="-8506.6" />
    <node id="node_92" type="priority" x="-25867.0" y="-9388.7" />
    <node id="node_93" type="priority" x="-24773.0" y="-6290.8" />
    <node id="node_94" type="priority" x="-14890.0" y="-9878.1" />
    <node id="node_95" type="priority" x="-15859.0" y="-8245.4" />
    <node id="node_96" type="priority" x="-15658.0" y="-8667.4" />
    <node id="node_97" type="priority" x="-18372.0" y="-8632.0" />
    <node id="node_98" type="priority" x="-16064.0" y="-11836.0" />
    <node id="node_99" type="priority" x="-14892.0" y="-9965.7" />
    <node id="node_100" type="priority" x="-15269.0" y="-9152.2" />
    <node id="node_101" type="priority" x="-18835.0" y="-8440.0" />
    <node id="node_102" type="priority" x="-16322.0" y="-11781.0" />
    <node id="node_103" type="priority" x="-16623.0" y="-11216.0" />
    <node id="node_104" type="priority" x="-16726.0" y="-11221.0" />
    <node id="node_105" type="priority" x="-16179.0" y="-7992.8" />
    <node id="node_106" type="priority" x="-15843.0" y="-8171.7" />
    <node id="node_107" type="priority" x="-16582.0" y="-11171.0" />
    <node id="node_108" type="priority" x="-16632.0" y="-11312.0" />
    <node id="node_109" type="priority" x="-18627.0" y="-8719.6" />
    <node id="node_110" type="priority" x="-15888.0" y="-10739.0" />
    <node id="node_111" type="priority" x="-14400.0" y="-10659.0" />
    <node id="node_112" type="priority" x="-15626.0" y="-8528.8" />
    <node id="node_113" type="priority" x="-18782.0" y="-8618.1" />
    <node id="node_114" type="priority" x="-15313.0" y="-9279.4" />
    <node id="node_115" type="priority" x="-15898.0" y="-8274.3" />
    <node id="node_116" type="priority" x="-15766.0" y="-8278.7" />
    <node id="node_117" type="priority" x="-14360.0" y="-10434.0" />
    <node id="node_118" type="priority" x="-15620.0" y="-8634.5" />
    <node id="node_119" type="priority" x="-18607.0" y="-8317.9" />
    <node id="node_120" type="priority" x="-18327.0" y="-8477.5" />
    <node id="node_121" type="priority" x="-15526.0" y="-8665.8" />
    <node id="node_122" type="priority" x="-15081.0" y="-10221.0" />
    <node id="node_123" type="priority" x="-15275.0" y="-9249.6" />
    <node id="node_124" type="priority" x="-15659.0" y="-10578.0" />
    <node id="node_125" type="priority" x="-18496.0" y="-8793.3" />
    <node id="node_126" type="priority" x="-18314.0" y="-8218.2" />
    <node id="node_127" type="priority" x="-15192.0" y="-9262.0" />
    <node id="node_128" type="priority" x="-13409.0" y="-3021.5" />
    <node id="node_129" type="priority" x="-13640.0" y="-3414.4" />
    <node id="node_130" type="priority" x="-13629.0" y="-3711.8" />
    <node id="node_131" type="priority" x="-13441.0" y="-3194.6" />
    <node id="node_132" type="priority" x="-17931.0" y="-1203.8" />
    <node id="node_133" tl="GS_1052165761" type="traffic_light" x="-5243.6" y="1130.0" />
    <node id="node_134" type="priority" x="-22730.0" y="1523.2" />
    <node id="node_135" type="priority" x="-10357.0" y="-4315.0" />
    <node id="node_136" type="priority" x="-9160.2" y="-6635.5" />
    <node id="node_137" type="priority" x="-9239.7" y="-6528.6" />
    <node id="node_138" type="priority" x="-12411.0" y="2748.4" />
    <node id="node_139" type="priority" x="-23479.0" y="3053.3" />
    <node id="node_140" type="priority" x="-17474.0" y="-1094.1" />
    <node id="node_141" type="priority" x="-22633.0" y="1905.3" />
    <node id="node_142" type="priority" x="-25762.0" y="6373.6" />
    <node id="node_143" type="priority" x="-15855.0" y="465.42" />
    <node id="node_144" type="priority" x="-10384.0" y="-6682.1" />
    <node id="node_145" type="priority" x="-15734.0" y="855.71" />
    <node id="node_146" type="priority" x="-22417.0" y="1581.2" />
    <node id="node_147" type="priority" x="-17746.0" y="-802.77" />
    <node id="node_148" type="priority" x="-5507.7" y="-1141.2" />
    <node id="node_149" type="priority" x="-5799.3" y="-7421.6" />
    <node id="node_150" type="priority" x="-17887.0" y="-928.04" />
    <node id="node_151" type="priority" x="-9624.9" y="-6952.8" />
    <node id="node_152" type="priority" x="-5677.6" y="-7206.3" />
    <node id="node_153" type="priority" x="-15907.0" y="796.63" />
    <node id="node_154" type="priority" x="-10491.0" y="-4726.9" />
    <node id="node_155" type="priority" x="-9268.1" y="-6347.5" />
    <node id="node_156" type="priority" x="-9040.6" y="-6025.3" />
    <node id="node_157" type="priority" x="-15537.0" y="689.2" />
    <node id="node_158" type="priority" x="-10243.0" y="-6613.2" />
    <node id="node_159" type="priority" x="-17525.0" y="-918.76" />
    <node id="node_160" type="priority" x="-10389.0" y="-4005.5" />
    <node id="node_161" type="priority" x="-5485.9" y="1423.8" />
    <node id="node_162" type="priority" x="-22589.0" y="1400.8" />
    <node id="node_163" type="priority" x="-15654.0" y="459.96" />
    <node id="node_164" type="priority" x="-22379.0" y="1752.8" />
    <node id="node_165" type="priority" x="-22838.0" y="1817.2" />
    <node id="node_166" type="priority" x="-24650.0" y="3940.3" />
    <node id="node_167" type="priority" x="-5335.2" y="953.19" />
    <node id="node_168" type="priority" x="-22822.0" y="1686.8" />
    <node id="node_169" type="priority" x="-9604.3" y="-6463.4" />
    <node id="node_170" type="priority" x="-25949.0" y="6456.1" />
    <node id="node_171" tl="GS_1052166069" type="traffic_light" x="-5699.1" y="1354.7" />
    <node id="node_172" type="priority" x="-10671.0" y="-4541.2" />
    <node id="node_173" type="priority" x="-22493.0" y="1934.7" />
    <node id="node_174" type="priority" x="-10533.0" y="-4171.0" />
    <node id="node_175" type="priority" x="-15951.0" y="611.66" />
    <node id="node_176" type="priority" x="-17902.0" y="-1053.8" />
    <node id="node_177" type="priority" x="-23163.0" y="3241.7" />
    <node id="node_178" type="priority" x="-12262.0" y="2756.4" />
    <node id="node_179" type="priority" x="-10431.0" y="-4636.9" />
    <node id="node_180" type="priority" x="-17604.0" y="-809.51" />
    <node id="node_181" type="priority" x="-9515.9" y="-6772.0" />
    <node id="node_182" type="priority" x="-5926.2" y="1184.3" />
    <node id="node_183" type="priority" x="-9550.0" y="-6629.8" />
    <node id="node_184" type="priority" x="-17745.0" y="-1231.4" />
    <node id="node_185" type="priority" x="-10606.0" y="-4439.2" />
    <node id="node_186" tl="GS_1052166282" type="traffic_light" x="-5952.7" y="975.95" />
    <node id="node_187" type="priority" x="-16417.0" y="15181.0" />
    <node id="node_188" type="priority" x="-17607.0" y="15758.0" />
    <node id="node_189" type="priority" x="-16032.0" y="16655.0" />
    <node id="node_190" type="priority" x="-14017.0" y="18298.0" />
    <node id="node_191" type="priority" x="-15195.0" y="15671.0" />
    <node id="node_192" type="priority" x="-15372.0" y="15953.0" />
    <node id="node_193" type="priority" x="-14706.0" y="16020.0" />
    <node id="node_194" type="priority" x="-16585.0" y="15822.0" />
    <node id="node_195" type="priority" x="-15505.0" y="16075.0" />
    <node id="node_196" type="priority" x="-13759.0" y="18325.0" />
    <node id="node_197" type="priority" x="-17307.0" y="19168.0" />
    <node id="node_198" type="priority" x="-15875.0" y="16293.0" />
    <node id="node_199" type="priority" x="-14921.0" y="16288.0" />
    <node id="node_200" type="priority" x="-17241.0" y="15635.0" />
    <node id="node_201" type="priority" x="-17370.0" y="18996.0" />
    <node id="node_202" type="priority" x="-15535.0" y="15020.0" />
    <node id="node_203" type="priority" x="-16392.0" y="17778.0" />
    <node id="node_204" type="priority" x="-15560.0" y="15388.0" />
    <node id="node_205" type="priority" x="-16356.0" y="17706.0" />
    <node id="node_206" type="priority" x="-17136.0" y="18891.0" />
    <node id="node_207" type="priority" x="-15830.0" y="15791.0" />
    <node id="node_208" type="priority" x="-16816.0" y="17087.0" />
    <node id="node_209" type="priority" x="-14681.0" y="16708.0" />
    <node id="node_210" type="priority" x="-15694.0" y="15952.0" />
    <node id="node_211" type="priority" x="-17017.0" y="19154.0" />
    <node id="node_212" type="priority" x="-16659.0" y="18046.0" />
    <node id="node_213" type="priority" x="-15029.0" y="16430.0" />
    <node id="node_214" type="priority" x="-16046.0" y="16160.0" />
    <node id="node_215" type="priority" x="-15261.0" y="15798.0" />
    <node id="node_216" type="priority" x="-15419.0" y="15111.0" />
    <node id="node_217" type="priority" x="-14245.0" y="17024.0" />
    <node id="node_218" type="priority" x="-14670.0" y="15933.0" />
    <node id="node_219" type="priority" x="-14804.0" y="16136.0" />
    <node id="node_220" type="priority" x="-15174.0" y="15573.0" />
    <node id="node_221" type="priority" x="-14335.0" y="16261.0" />
    <node id="node_222" type="priority" x="-14717.0" y="17716.0" />
    <node id="node_223" type="priority" x="-17712.0" y="16052.0" />
    <node id="node_224" type="priority" x="-16178.0" y="16020.0" />
    <node id="node_225" type="priority" x="-16835.0" y="15673.0" />
    <node id="node_226" type="priority" x="-14293.0" y="16179.0" />
    <node id="node_227" type="priority" x="-16488.0" y="15133.0" />
    <node id="node_228" type="priority" x="-13625.0" y="17625.0" />
    <node id="node_229" tl="GS_1061695272" type="traffic_light" x="-13761.0" y="18482.0" />
    <node id="node_230" type="priority" x="-17174.0" y="18751.0" />
    <node id="node_231" tl="GS_1061695290" type="traffic_light" x="-13915.0" y="18223.0" />
    <node id="node_232" type="priority" x="-15524.0" y="15175.0" />
    <node id="node_233" type="priority" x="-8667.2" y="-1537.1" />
    <node id="node_234" type="priority" x="-2982.7" y="-2719.1" />
    <node id="node_235" type="priority" x="-2346.9" y="-3950.7" />
    <node id="node_236" type="priority" x="-2127.8" y="-4065.0" />
    <node id="node_237" type="priority" x="-3150.9" y="-2773.2" />
    <node id="node_238" type="priority" x="-2629.2" y="-3397.4" />
    <node id="node_239" type="priority" x="-7529.5" y="-3317.9" />
    <node id="node_240" type="priority" x="-2740.5" y="-3122.4" />
    <node id="node_241" type="priority" x="-8809.8" y="-1553.8" />
    <node id="node_242" type="priority" x="-9044.2" y="-1830.4" />
    <node id="node_243" type="priority" x="-22220.0" y="5912.0" />
    <node id="node_244" type="priority" x="-18925.0" y="4727.4" />
    <node id="node_245" type="priority" x="-22188.0" y="5845.4" />
    <node id="node_246" type="priority" x="-18509.0" y="4824.9" />
    <node id="node_247" type="priority" x="-22635.0" y="6506.1" />
    <node id="node_248" type="priority" x="-22161.0" y="5295.6" />
    <node id="node_249" type="priority" x="-22265.0" y="9709.6" />
    <node id="node_250" type="priority" x="-22000.0" y="5506.0" />
    <node id="node_251" type="priority" x="-22808.0" y="6769.4" />
    <node id="node_252" type="priority" x="-22075.0" y="5835.9" />
    <node id="node_253" type="priority" x="-22610.0" y="9449.5" />
    <node id="node_254" type="priority" x="-25497.0" y="6704.6" />
    <node id="node_255" type="priority" x="-18890.0" y="4845.0" />
    <node id="node_256" type="priority" x="-22389.0" y="5580.1" />
    <node id="node_257" type="priority" x="-22605.0" y="9583.6" />
    <node id="node_258" type="priority" x="-21961.0" y="5231.8" />
    <node id="node_259" type="priority" x="-22610.0" y="6400.1" />
    <node id="node_260" type="priority" x="-22166.0" y="9518.5" />
    <node id="node_261" type="priority" x="-25549.0" y="6460.0" />
    <node id="node_262" type="priority" x="-22385.0" y="5797.9" />
    <node id="node_263" type="priority" x="-21932.0" y="5724.1" />
    <node id="node_264" type="priority" x="-19374.0" y="4443.4" />
    <node id="node_265" type="priority" x="-22089.0" y="9398.0" />
    <node id="node_266" type="priority" x="-22416.0" y="9735.8" />
    <node id="node_267" type="priority" x="-22707.0" y="6337.9" />
    <node id="node_268" type="priority" x="-22124.0" y="5560.3" />
    <node id="node_269" type="priority" x="-21747.0" y="7137.5" />
    <node id="node_270" type="priority" x="-22279.0" y="5850.7" />
    <node id="node_271" type="priority" x="-22759.0" y="6519.7" />
    <node id="node_272" type="priority" x="-22041.0" y="5291.9" />
    <node id="node_273" type="priority" x="-18511.0" y="4704.6" />
    <node id="node_274" type="priority" x="-21886.0" y="5493.0" />
    <node id="node_275" type="priority" x="-22276.0" y="9248.3" />
    <node id="node_276" type="priority" x="-22673.0" y="6367.7" />
    <node id="node_277" type="priority" x="-21917.0" y="5156.6" />
    <node id="node_278" type="priority" x="-22436.0" y="9246.6" />
    <node id="node_279" type="priority" x="-16994.0" y="18816.0" />
    <node id="node_280" type="priority" x="-15174.0" y="19554.0" />
    <node id="node_281" type="priority" x="-15338.0" y="19308.0" />
    <node id="node_282" type="priority" x="-14631.0" y="19601.0" />
    <node id="node_283" type="priority" x="-17634.0" y="19265.0" />
    <node id="node_284" type="priority" x="-16821.0" y="19401.0" />
    <node id="node_285" type="priority" x="-16549.0" y="19519.0" />
    <node id="node_286" type="priority" x="-15825.0" y="19729.0" />
    <node id="node_287" type="priority" x="-14805.0" y="19368.0" />
    <node id="node_288" type="priority" x="-14984.0" y="19591.0" />
    <node id="node_289" type="priority" x="-16605.0" y="18003.0" />
    <node id="node_290" type="priority" x="-15337.0" y="19861.0" />
    <node id="node_291" type="priority" x="-15029.0" y="19761.0" />
    <node id="node_292" type="priority" x="-13818.0" y="18639.0" />
    <node id="node_293" tl="GS_1066742878" type="traffic_light" x="-13984.0" y="18659.0" />
    <node id="node_294" type="priority" x="-14129.0" y="18555.0" />
    <node id="node_295" tl="GS_1066742913" type="traffic_light" x="-14195.0" y="18414.0" />
    <node id="node_296" type="priority" x="-22015.0" y="14287.0" />
    <node id="node_297" type="priority" x="-22399.0" y="14375.0" />
    <node id="node_298" type="priority" x="-22941.0" y="15469.0" />
    <node id="node_299" type="priority" x="-22205.0" y="14381.0" />
    <node id="node_300" type="priority" x="-22149.0" y="13862.0" />
    <node id="node_301" type="priority" x="-22971.0" y="15380.0" />
    <node id="node_302" type="priority" x="-22722.0" y="14079.0" />
    <node id="node_303" type="priority" x="-22196.0" y="14256.0" />
    <node id="node_304" type="priority" x="-22460.0" y="16397.0" />
    <node id="node_305" type="priority" x="-22685.0" y="16269.0" />
    <node id="node_306" type="priority" x="-23670.0" y="14794.0" />
    <node id="node_307" type="priority" x="-3716.6" y="22852.0" />
    <node id="node_308" type="priority" x="-7074.7" y="24866.0" />
    <node id="node_309" type="priority" x="-5116.4" y="22535.0" />
    <node id="node_310" type="priority" x="-5579.4" y="24004.0" />
    <node id="node_311" type="priority" x="-6566.7" y="23525.0" />
    <node id="node_312" type="priority" x="-7144.4" y="24415.0" />
    <node id="node_313" type="priority" x="-6767.4" y="25190.0" />
    <node id="node_314" type="priority" x="-6418.0" y="23584.0" />
    <node id="node_315" type="priority" x="-7109.5" y="24460.0" />
    <node id="node_316" type="priority" x="-5027.6" y="22727.0" />
    <node id="node_317" type="priority" x="-4702.6" y="24297.0" />
    <node id="node_318" type="priority" x="-6727.6" y="23937.0" />
    <node id="node_319" type="priority" x="-3654.8" y="23074.0" />
    <node id="node_320" tl="GS_1067889614" type="traffic_light" x="-3724.0" y="22442.0" />
    <node id="node_321" type="priority" x="-3726.0" y="22676.0" />
    <node id="node_322" type="priority" x="-7032.5" y="24523.0" />
    <node id="node_323" type="priority" x="-4655.5" y="22202.0" />
    <node id="node_324" type="priority" x="-5993.8" y="24637.0" />
    <node id="node_325" type="priority" x="-4191.5" y="22671.0" />
    <node id="node_326" type="priority" x="-5340.6" y="23987.0" />
    <node id="node_327" type="priority" x="-5269.5" y="24300.0" />
    <node id="node_328" type="priority" x="-6380.0" y="25147.0" />
    <node id="node_329" type="priority" x="-3926.3" y="22880.0" />
    <node id="node_330" type="priority" x="-5589.5" y="23023.0" />
    <node id="node_331" type="priority" x="-6385.0" y="23685.0" />
    <node id="node_332" type="priority" x="-6051.6" y="24442.0" />
    <node id="node_333" type="priority" x="-6659.7" y="24022.0" />
    <node id="node_334" type="priority" x="-6745.3" y="25429.0" />
    <node id="node_335" type="priority" x="-6592.7" y="23887.0" />
    <node id="node_336" type="priority" x="-5858.8" y="24648.0" />
    <node id="node_337" type="priority" x="-5443.3" y="23158.0" />
    <node id="node_338" type="priority" x="-5063.4" y="24189.0" />
    <node id="node_339" type="priority" x="-3777.6" y="22974.0" />
    <node id="node_340" type="priority" x="-3330.2" y="22990.0" />
    <node id="node_341" type="priority" x="-7126.8" y="24646.0" />
    <node id="node_342" type="priority" x="-6397.8" y="25291.0" />
    <node id="node_343" type="priority" x="-3710.7" y="23310.0" />
    <node id="node_344" type="priority" x="-4119.8" y="22873.0" />
    <node id="node_345" type="priority" x="-3998.1" y="22459.0" />
    <node id="node_346" type="priority" x="-3591.0" y="23049.0" />
    <node id="node_347" type="priority" x="-11236.0" y="-22945.0" />
    <node id="node_348" type="priority" x="-8365.2" y="-20889.0" />
    <node id="node_349" type="priority" x="-11005.0" y="-19913.0" />
    <node id="node_350" type="priority" x="-7819.7" y="-18383.0" />
    <node id="node_351" type="priority" x="-7547.7" y="-17916.0" />
    <node id="node_352" type="priority" x="-9757.2" y="-22614.0" />
    <node id="node_353" type="priority" x="-12207.0" y="-21854.0" />
    <node id="node_354" type="priority" x="-11528.0" y="-21946.0" />
    <node id="node_355" type="priority" x="-9311.1" y="-22278.0" />
    <node id="node_356" type="priority" x="-10422.0" y="-22732.0" />
    <node id="node_357" type="priority" x="-9951.8" y="-22813.0" />
    <node id="node_358" type="priority" x="-11420.0" y="-22155.0" />
    <node id="node_359" type="priority" x="-10958.0" y="-22866.0" />
    <node id="node_360" type="priority" x="-8232.5" y="-20641.0" />
    <node id="node_361" type="priority" x="-11604.0" y="-19710.0" />
    <node id="node_362" type="priority" x="-11407.0" y="-19627.0" />
    <node id="node_363" type="priority" x="-9312.0" y="-16612.0" />
    <node id="node_364" type="priority" x="-8765.9" y="-16632.0" />
    <node id="node_365" type="priority" x="-15273.0" y="19577.0" />
    <node id="node_366" type="priority" x="-15472.0" y="19664.0" />
    <node id="node_367" type="priority" x="-14965.0" y="20030.0" />
    <node id="node_368" type="priority" x="-14748.0" y="19785.0" />
    <node id="node_369" type="priority" x="-15003.0" y="20351.0" />
    <node id="node_370" type="priority" x="-15216.0" y="20260.0" />
    <node id="node_371" type="priority" x="-15049.0" y="19241.0" />
    <node id="node_372" type="priority" x="-17228.0" y="18866.0" />
    <node id="node_373" type="priority" x="-16434.0" y="17580.0" />
    <node id="node_374" type="priority" x="-11635.0" y="45011.0" />
    <node id="node_375" type="priority" x="-16163.0" y="41856.0" />
    <node id="node_376" type="priority" x="-11740.0" y="44962.0" />
    <node id="node_377" type="priority" x="-19119.0" y="43663.0" />
    <node id="node_378" type="priority" x="-11761.0" y="45418.0" />
    <node id="node_379" type="priority" x="-16592.0" y="17664.0" />
    <node id="node_380" type="priority" x="35639.0" y="-33595.0" />
    <node id="node_381" type="priority" x="35754.0" y="-33794.0" />
    <node id="node_382" type="priority" x="35728.0" y="-33625.0" />
    <node id="node_383" type="priority" x="35739.0" y="-33614.0" />
    <node id="node_384" type="priority" x="34832.0" y="-34036.0" />
    <node id="node_385" type="priority" x="35652.0" y="-33681.0" />
    <node id="node_386" type="priority" x="34770.0" y="-34107.0" />
    <node id="node_387" type="priority" x="34770.0" y="-34086.0" />
    <node id="node_388" type="priority" x="12937.0" y="-4635.9" />
    <node id="node_389" type="priority" x="3859.8" y="9594.4" />
    <node id="node_390" type="priority" x="-32874.0" y="6119.0" />
    <node id="node_391" type="priority" x="-32701.0" y="6058.4" />
    <node id="node_392" type="priority" x="-37439.0" y="2353.9" />
    <node id="node_393" type="priority" x="-26601.0" y="-1988.3" />
    <node id="node_394" type="priority" x="-27564.0" y="-1954.5" />
    <node id="node_395" type="priority" x="-29469.0" y="-1245.7" />
    <node id="node_396" type="priority" x="-20727.0" y="18494.0" />
    <node id="node_397" type="priority" x="-20186.0" y="17640.0" />
    <node id="node_398" type="priority" x="-19419.0" y="17670.0" />
    <node id="node_399" type="priority" x="-19530.0" y="17649.0" />
    <node id="node_400" type="priority" x="-20498.0" y="18466.0" />
    <node id="node_401" type="priority" x="-20631.0" y="17878.0" />
    <node id="node_402" type="priority" x="-19076.0" y="17193.0" />
    <node id="node_403" type="priority" x="-18997.0" y="17417.0" />
    <node id="node_404" type="priority" x="-18843.0" y="16888.0" />
    <node id="node_405" type="priority" x="-18547.0" y="16912.0" />
    <node id="node_406" type="priority" x="-6587.7" y="-16549.0" />
    <node id="node_407" type="priority" x="-6516.7" y="-15787.0" />
    <node id="node_408" type="priority" x="-6383.0" y="-16399.0" />
    <node id="node_409" type="priority" x="-6665.3" y="-15771.0" />
    <node id="node_410" type="priority" x="-6825.6" y="-15879.0" />
    <node id="node_411" type="priority" x="-6892.3" y="-16046.0" />
    <node id="node_412" type="priority" x="11426.0" y="-17352.0" />
    <node id="node_413" type="priority" x="13326.0" y="-17545.0" />
    <node id="node_414" type="priority" x="-1914.2" y="4473.1" />
    <node id="node_415" type="priority" x="3823.2" y="7370.7" />
    <node id="node_416" type="priority" x="16730.0" y="-12258.0" />
    <node id="node_417" type="priority" x="-10516.0" y="18984.0" />
    <node id="node_418" type="priority" x="-14426.0" y="15271.0" />
    <node id="node_419" tl="GS_1163010482" type="traffic_light" x="-10350.0" y="18916.0" />
    <node id="node_420" type="priority" x="-2787.3" y="-2471.1" />
    <node id="node_421" type="priority" x="4397.3" y="-3145.3" />
    <node id="node_422" type="priority" x="4803.2" y="-6285.5" />
    <node id="node_423" tl="GS_1166168346" type="traffic_light" x="5246.8" y="-5696.5" />
    <node id="node_424" type="priority" x="5127.3" y="-6476.5" />
    <node id="node_425" type="priority" x="5849.8" y="-5039.5" />
    <node id="node_426" type="priority" x="6374.6" y="-6163.9" />
    <node id="node_427" type="priority" x="5984.5" y="-3431.4" />
    <node id="node_428" type="priority" x="5890.3" y="-5997.0" />
    <node id="node_429" type="priority" x="4299.7" y="-2990.4" />
    <node id="node_430" tl="GS_1166168462" type="traffic_light" x="5813.9" y="-5797.9" />
    <node id="node_431" type="priority" x="4853.3" y="-4560.4" />
    <node id="node_432" tl="GS_1166168470" type="traffic_light" x="5602.4" y="-6290.1" />
    <node id="node_433" type="priority" x="4785.7" y="-6728.0" />