<?xml version='1.0' encoding='UTF-8'?>
<nodes xmlns:xsi="http://www.w3.org/2001/XMLSchema-instance" version="0.27" xsi:noNamespaceSchemaLocation="http://sumo.dlr.de/xsd/nodes_file.xsd">
    <location convBoundary="2208.92,522.44,21219.92,15402.46" netOffset="-224973.31,-2700122.99" origBoundary="54.286966,24.391306,54.609531,24.591038" projParameter="+proj=utm +zone=40 +ellps=WGS84 +datum=WGS84 +units=m +no_defs" />

    <node id="node_0" type="priority" x="6790.4" y="-4795.6" />
    <node id="node_1" type="priority" x="4120.6" y="4792.1" />
    <node id="node_2" type="priority" x="2739.0" y="6008.8" />
    <node id="node_3" tl="GS_1003388266" type="traffic_light" x="-1249.9" y="-350.63" />
    <node id="node_4" type="priority" x="-27.363" y="459.52" />
    <node id="node_5" type="priority" x="-1320.2" y="-350.48" />
    <node id="node_6" tl="GS_1003388319" type="traffic_light" x="21.533" y="382.14" />
    <node id="node_7" type="priority" x="-825.73" y="2764.0" />
    <node id="node_8" type="priority" x="-1227.5" y="4752.3" />
    <node id="node_9" type="priority" x="3869.8" y="3952.8" />
    <node id="node_10" type="priority" x="-7428.1" y="838.11" />
    <node id="node_11" type="priority" x="-7435.0" y="822.41" />
    <node id="node_12" type="priority" x="-9101.7" y="497.42" />
    <node id="node_13" type="priority" x="-8285.9" y="420.67" />
    <node id="node_14" type="unregulated" x="-8640.6" y="619.66" />
    <node id="node_15" type="unregulated" x="-8648.0" y="464.57" />
    <node id="node_16" type="priority" x="-8893.0" y="588.31" />
    <node id="node_17" type="priority" x="6255.8" y="-3901.7" />
    <node id="node_18" type="priority" x="6287.6" y="-3921.8" />
    <node id="node_19" type="priority" x="795.6" y="5613.1" />
    <node id="node_20" type="priority" x="753.92" y="5383.6" />
    <node id="node_21" type="priority" x="611.98" y="5425.6" />
    <node id="node_22" type="priority" x="-1343.0" y="2981.9" />
    <node id="node_23" type="priority" x="683.4" y="5630.7" />
    <node id="node_24" type="priority" x="-1272.2" y="2885.4" />
    <node id="node_25" type="priority" x="-2115.1" y="2760.7" />
    <node id="node_26" type="priority" x="-4262.7" y="1823.0" />
    <node id="node_27" type="priority" x="-7102.6" y="651.97" />
    <node id="node_28" type="priority" x="-5450.6" y="1698.4" />
    <node id="node_29" type="priority" x="-2675.4" y="2850.7" />
    <node id="node_30" type="priority" x="-2167.0" y="2807.0" />
    <node id="node_31" type="priority" x="-4154.1" y="1951.8" />
    <node id="node_32" type="priority" x="-2775.8" y="2938.1" />
    <node id="node_33" type="priority" x="-4247.4" y="2034.0" />
    <node id="node_34" type="priority" x="-2750.2" y="2935.6" />
    <node id="node_35" type="priority" x="-4090.0" y="1899.4" />
    <node id="node_36" type="priority" x="-1084.1" y="2971.9" />
    <node id="node_37" type="priority" x="-1054.9" y="2878.7" />
    <node id="node_38" type="priority" x="-1114.7" y="2892.1" />
    <node id="node_39" type="priority" x="-1565.0" y="2778.9" />
    <node id="node_40" type="priority" x="-872.97" y="2762.1" />
    <node id="node_41" type="priority" x="-890.5" y="2574.3" />
    <node id="node_42" type="priority" x="-959.11" y="2837.6" />
    <node id="node_43" type="priority" x="-902.08" y="2912.4" />
    <node id="node_44" type="priority" x="-1197.0" y="2882.8" />
    <node id="node_45" type="priority" x="-947.63" y="2948.2" />
    <node id="node_46" type="priority" x="-2172.8" y="3887.4" />
    <node id="node_47" type="priority" x="-2351.3" y="3907.9" />
    <node id="node_48" type="priority" x="-2204.0" y="3878.7" />
    <node id="node_49" type="priority" x="-2065.6" y="3897.9" />
    <node id="node_50" type="priority" x="-2289.8" y="3864.2" />
    <node id="node_51" type="priority" x="-2309.6" y="3865.6" />
    <node id="node_52" type="priority" x="-2152.2" y="3947.8" />
    <node id="node_53" type="priority" x="-2360.9" y="3622.5" />
    <node id="node_54" type="priority" x="-2309.6" y="3932.4" />
    <node id="node_55" type="priority" x="-2311.9" y="3847.1" />
    <node id="node_56" type="priority" x="1575.1" y="1591.2" />
    <node id="node_57" type="priority" x="-5374.1" y="-1670.4" />
    <node id="node_58" type="priority" x="-4928.9" y="-2293.8" />
    <node id="node_59" type="priority" x="-5304.7" y="-1929.4" />
    <node id="node_60" type="priority" x="-4786.1" y="-2162.2" />
    <node id="node_61" type="priority" x="-5404.2" y="-1791.9" />
    <node id="node_62" type="priority" x="-5512.5" y="-1848.6" />
    <node id="node_63" type="priority" x="-5603.8" y="-1969.9" />
    <node id="node_64" type="priority" x="-5269.6" y="-1723.0" />
    <node id="node_65" type="priority" x="-5587.4" y="-2014.2" />
    <node id="node_66" type="priority" x="-4973.0" y="-2178.9" />
    <node id="node_67" type="priority" x="-5664.8" y="-1912.5" />
    <node id="node_68" type="priority" x="-5067.1" y="-2623.8" />
    <node id="node_69" type="priority" x="-5833.4" y="-3100.3" />
    <node id="node_70" type="priority" x="-5822.7" y="-5128.5" />
    <node id="node_71" type="priority" x="-5858.0" y="-5045.3" />
    <node id="node_72" type="priority" x="-4705.1" y="-3073.6" />
    <node id="node_73" type="priority" x="-6068.6" y="-4854.9" />
    <node id="node_74" type="priority" x="-5189.6" y="-3331.8" />
    <node id="node_75" type="priority" x="-5633.4" y="-3896.6" />
    <node id="node_76" type="unregulated" x="-4173.6" y="-3545.1" />
    <node id="node_77" type="priority" x="-5689.3" y="-4507.9" />
    <node id="node_78" type="priority" x="-5729.2" y="-4361.4" />
    <node id="node_79" type="priority" x="-5978.4" y="-4673.0" />
    <node id="node_80" type="unregulated" x="-4090.4" y="-3369.1" />
    <node id="node_81" type="priority" x="-5751.4" y="-4531.0" />
    <node id="node_82" type="priority" x="-6090.1" y="-4796.1" />
    <node id="node_83" type="priority" x="-5917.6" y="-4704.0" />
    <node id="node_84" type="priority" x="-5811.4" y="-4580.6" />
    <node id="node_85" type="priority" x="-6260.4" y="-3431.3" />
    <node id="node_86" type="priority" x="-6068.4" y="-3197.5" />
    <node id="node_87" type="priority" x="-6124.2" y="-3277.6" />
    <node id="node_88" type="priority" x="-5972.1" y="-5345.1" />
    <node id="node_89" type="priority" x="-5796.3" y="-5065.2" />
    <node id="node_90" type="priority" x="-5868.1" y="-5194.2" />
    <node id="node_91" type="priority" x="-6057.1" y="-5197.1" />
    <node id="node_92" type="priority" x="-6120.1" y="-5390.5" />
    <node id="node_93" type="priority" x="-5288.4" y="-3464.7" />
    <node id="node_94" type="priority" x="-2910.8" y="-4187.9" />
    <node id="node_95" type="priority" x="-3719.3" y="-4857.9" />
    <node id="node_96" type="priority" x="-3645.5" y="-4997.1" />
    <node id="node_97" type="priority" x="-3264.1" y="-3565.8" />
    <node id="node_98" type="priority" x="-2668.8" y="-3572.0" />
    <node id="node_99" type="priority" x="-2852.7" y="-4189.9" />
    <node id="node_100" type="priority" x="-3371.5" y="-5057.0" />
    <node id="node_101" type="priority" x="-3749.7" y="-3582.0" />
    <node id="node_102" type="priority" x="-2716.8" y="-3650.0" />
    <node id="node_103" type="priority" x="-2862.5" y="-3644.8" />
    <node id="node_104" type="priority" x="-2932.0" y="-3600.5" />
    <node id="node_105" type="priority" x="-3680.0" y="-4667.9" />
    <node id="node_106" type="priority" x="-3770.0" y="-4829.5" />
    <node id="node_107" type="priority" x="-2858.3" y="-3619.2" />
    <node id="node_108" type="priority" x="-2789.9" y="-3623.6" />
    <node id="node_109" type="priority" x="-3504.6" y="-3790.4" />
    <node id="node_110" type="priority" x="-2877.2" y="-3609.3" />
    <node id="node_111" type="priority" x="-2463.5" y="-3369.7" />
    <node id="node_112" type="priority" x="-3639.6" y="-4969.5" />
    <node id="node_113" type="priority" x="-3606.8" y="-3522.4" />
    <node id="node_114" type="priority" x="-3461.2" y="-4983.1" />
    <node id="node_115" type="priority" x="-3740.3" y="-4848.8" />
    <node id="node_116" type="priority" x="-3709.3" y="-4905.4" />
    <node id="node_117" type="priority" x="-2540.6" y="-3356.0" />
    <node id="node_118" type="priority" x="-3616.3" y="-4998.4" />
    <node id="node_119" type="priority" x="-3516.4" y="-3624.3" />
    <node id="node_120" type="priority" x="-3409.1" y="-3618.6" />
    <node id="node_121" type="priority" x="-3611.7" y="-5048.0" />
    <node id="node_122" type="priority" x="-3093.1" y="-4629.4" />
    <node id="node_123" type="priority" x="-3418.9" y="-4986.7" />
    <node id="node_124" type="priority" x="-2952.0" y="-3866.4" />
    <node id="node_125" type="priority" x="-3396.9" y="-3633.3" />
    <node id="node_126" type="priority" x="-3528.1" y="-3571.6" />
    <node id="node_127" type="priority" x="-3336.3" y="-4944.9" />
    <node id="node_128" type="priority" x="-3549.3" y="-2307.0" />
    <node id="node_129" type="priority" x="-3478.8" y="-2710.4" />
    <node id="node_130" type="priority" x="-3906.4" y="-3300.3" />
    <node id="node_131" type="priority" x="-3529.7" y="-2423.6" />
    <node id="node_132" type="priority" x="-3876.3" y="-1526.3" />
    <node id="node_133" tl="GS_1052165761" type="traffic_light" x="-1013.7" y="-343.79" />
    <node id="node_134" type="priority" x="-5621.4" y="-678.95" />
    <node id="node_135" type="priority" x="-3430.9" y="-2992.0" />
    <node id="node_136" type="priority" x="-1656.8" y="-2759.9" />
    <node id="node_137" type="priority" x="-1709.9" y="-2714.2" />
    <node id="node_138" type="priority" x="-2745.9" y="386.7" />
    <node id="node_139" type="priority" x="-5605.6" y="-194.94" />
    <node id="node_140" type="priority" x="-3977.3" y="-1541.1" />
    <node id="node_141" type="priority" x="-5513.4" y="-380.59" />
    <node id="node_142" type="priority" x="-5367.6" y="188.55" />
    <node id="node_143" type="priority" x="-3927.5" y="-423.61" />
    <node id="node_144" type="priority" x="-2001.4" y="-2731.9" />
    <node id="node_145" type="priority" x="-3833.2" y="-270.98" />
    <node id="node_146" type="priority" x="-5598.0" y="-541.33" />
    <node id="node_147" type="priority" x="-3812.9" y="-1291.6" />
    <node id="node_148" type="priority" x="-1421.7" y="-696.63" />
    <node id="node_149" type="priority" x="-999.28" y="-2377.3" />
    <node id="node_150" type="priority" x="-3949.2" y="-1432.8" />
    <node id="node_151" type="priority" x="-1792.4" y="-2866.9" />
    <node id="node_152" type="priority" x="-1033.9" y="-2245.2" />
    <node id="node_153" type="priority" x="-4079.4" y="-411.15" />
    <node id="node_154" type="priority" x="-3601.1" y="-2988.3" />
    <node id="node_155" type="priority" x="-1801.6" y="-2654.1" />
    <node id="node_156" type="priority" x="-1822.1" y="-2597.0" />
    <node id="node_157" type="priority" x="-3706.8" y="-450.59" />
    <node id="node_158" type="priority" x="-1966.6" y="-2697.2" />
    <node id="node_159" type="priority" x="-3787.4" y="-1425.2" />
    <node id="node_160" type="priority" x="-2787.7" y="-2775.2" />
    <node id="node_161" type="priority" x="-1041.2" y="126.11" />
    <node id="node_162" type="priority" x="-5416.4" y="-859.18" />
    <node id="node_163" type="priority" x="-3844.1" y="-417.81" />
    <node id="node_164" type="priority" x="-5389.3" y="-531.43" />
    <node id="node_165" type="priority" x="-5654.9" y="-594.34" />
    <node id="node_166" type="priority" x="-6210.8" y="-282.88" />
    <node id="node_167" type="priority" x="-982.13" y="-443.51" />
    <node id="node_168" type="priority" x="-5543.2" y="-581.7" />
    <node id="node_169" type="priority" x="-1871.7" y="-2690.7" />
    <node id="node_170" type="priority" x="-5439.6" y="255.17" />
    <node id="node_171" tl="GS_1052166069" type="traffic_light" x="-1079.8" y="-28.165" />
    <node id="node_172" type="priority" x="-3389.7" y="-3288.1" />
    <node id="node_173" type="priority" x="-5405.7" y="-384.94" />
    <node id="node_174" type="priority" x="-3162.0" y="-3055.3" />
    <node id="node_175" type="priority" x="-4101.5" y="-460.58" />
    <node id="node_176" type="priority" x="-3970.4" y="-1451.1" />
    <node id="node_177" type="priority" x="-5532.6" y="-130.69" />
    <node id="node_178" type="priority" x="-2700.6" y="460.07" />
    <node id="node_179" type="priority" x="-3600.9" y="-2987.2" />
    <node id="node_180" type="priority" x="-3745.6" y="-1306.8" />
    <node id="node_181" type="priority" x="-1748.7" y="-2813.4" />
    <node id="node_182" type="priority" x="-1286.2" y="-13.708" />
    <node id="node_183" type="priority" x="-1803.3" y="-2758.4" />
    <node id="node_184" type="priority" x="-3736.4" y="-1447.2" />
    <node id="node_185" type="priority" x="-3350.5" y="-3203.5" />
    <node id="node_186" tl="GS_1052166282" type="traffic_light" x="-1227.7" y="-97.511" />
    <node id="node_187" type="priority" x="-2647.0" y="3718.0" />
    <node id="node_188" type="priority" x="-2643.5" y="3794.0" />
    <node id="node_189" type="priority" x="-2750.0" y="4658.1" />
    <node id="node_190" type="priority" x="-1868.8" y="3386.7" />
    <node id="node_191" type="priority" x="-2865.5" y="5057.6" />
    <node id="node_192" type="priority" x="-2579.9" y="4828.4" />
    <node id="node_193" type="priority" x="-2526.2" y="4059.8" />
    <node id="node_194" type="priority" x="-2601.6" y="4101.9" />
    <node id="node_195" type="priority" x="-2517.0" y="4716.2" />
    <node id="node_196" type="priority" x="-1608.2" y="3167.9" />
    <node id="node_197" type="priority" x="-1737.0" y="3744.7" />
    <node id="node_198" type="priority" x="-2719.8" y="4575.2" />
    <node id="node_199" type="priority" x="-2262.3" y="3596.8" />
    <node id="node_200" type="priority" x="-2441.2" y="3537.8" />
    <node id="node_201" type="priority" x="-1812.8" y="3717.0" />
    <node id="node_202" type="priority" x="-3238.8" y="4716.9" />
    <node id="node_203" type="priority" x="-2078.0" y="4140.2" />
    <node id="node_204" type="priority" x="-3212.0" y="5027.8" />
    <node id="node_205" type="priority" x="-2103.4" y="4129.4" />
    <node id="node_206" type="priority" x="-1911.1" y="3722.6" />
    <node id="node_207" type="priority" x="-2891.0" y="4774.0" />
    <node id="node_208" type="priority" x="-2684.3" y="4815.9" />
    <node id="node_209" type="priority" x="-2148.6" y="3525.4" />
    <node id="node_210" type="priority" x="-2761.6" y="4802.8" />
    <node id="node_211" type="priority" x="-1854.4" y="3709.3" />
    <node id="node_212" type="priority" x="-1988.1" y="4094.6" />
    <node id="node_213" type="priority" x="-2192.3" y="3613.3" />
    <node id="node_214" type="priority" x="-2702.8" y="4516.7" />
    <node id="node_215" type="priority" x="-2708.6" y="4988.9" />
    <node id="node_216" type="priority" x="-3290.0" y="4897.3" />
    <node id="node_217" type="priority" x="-2097.5" y="3459.6" />
    <node id="node_218" type="priority" x="-2593.5" y="4022.3" />
    <node id="node_219" type="priority" x="-2397.4" y="3813.4" />
    <node id="node_220" type="priority" x="-2980.3" y="5049.8" />
    <node id="node_221" type="priority" x="-2398.6" y="4424.0" />
    <node id="node_222" type="priority" x="-2044.4" y="3546.8" />
    <node id="node_223" type="priority" x="-2654.3" y="4186.2" />
    <node id="node_224" type="priority" x="-2640.4" y="4304.5" />
    <node id="node_225" type="priority" x="-2521.7" y="3829.9" />
    <node id="node_226" type="priority" x="-2438.3" y="4392.1" />
    <node id="node_227" type="priority" x="-2677.7" y="3708.9" />
    <node id="node_228" type="priority" x="-1747.4" y="3267.8" />
    <node id="node_229" tl="GS_1061695272" type="traffic_light" x="-1637.2" y="3214.2" />
    <node id="node_230" type="priority" x="-1998.5" y="3690.5" />
    <node id="node_231" tl="GS_1061695290" type="traffic_light" x="-1742.5" y="3309.3" />
    <node id="node_232" type="priority" x="-3228.9" y="4831.6" />
    <node id="node_233" type="priority" x="-1885.6" y="-692.39" />
    <node id="node_234" type="priority" x="-602.15" y="-667.76" />
    <node id="node_235" type="priority" x="-569.08" y="-1215.9" />
    <node id="node_236" type="priority" x="-500.54" y="-1519.3" />
    <node id="node_237" type="priority" x="-631.73" y="-734.2" />
    <node id="node_238" type="priority" x="-581.91" y="-1072.0" />
    <node id="node_239" type="priority" x="-2073.7" y="-2700.6" />
    <node id="node_240" type="priority" x="-577.78" y="-950.35" />
    <node id="node_241" type="priority" x="-1903.3" y="-652.03" />
    <node id="node_242" type="priority" x="-1852.5" y="-823.11" />
    <node id="node_243" type="priority" x="-6802.6" y="1484.5" />
    <node id="node_244" type="priority" x="-4004.3" y="172.09" />
    <node id="node_245" type="priority" x="-7525.0" y="1759.6" />
    <node id="node_246" type="priority" x="-3999.1" y="95.604" />
    <node id="node_247" type="priority" x="-6519.0" y="1854.3" />
    <node id="node_248" type="priority" x="-6812.6" y="1311.6" />
    <node id="node_249" type="priority" x="-4633.8" y="1740.5" />
    <node id="node_250" type="priority" x="-7187.0" y="1585.1" />
    <node id="node_251" type="priority" x="-6534.2" y="1954.1" />
    <node id="node_252" type="priority" x="-7524.1" y="1760.1" />
    <node id="node_253" type="priority" x="-4758.4" y="1606.6" />
    <node id="node_254" type="priority" x="-5420.3" y="275.79" />
    <node id="node_255" type="priority" x="-4028.4" y="245.31" />
    <node id="node_256" type="priority" x="-6894.9" y="1609.1" />
    <node id="node_257" type="priority" x="-4826.5" y="1688.9" />
    <node id="node_258" type="priority" x="-7094.7" y="1479.1" />
    <node id="node_259" type="priority" x="-6601.6" y="1896.2" />
    <node id="node_260" type="priority" x="-4604.3" y="1667.5" />
    <node id="node_261" type="priority" x="-5459.9" y="69.9" />
    <node id="node_262" type="priority" x="-6732.8" y="1547.6" />
    <node id="node_263" type="priority" x="-7419.8" y="1706.2" />
    <node id="node_264" type="priority" x="-4362.4" y="310.35" />
    <node id="node_265" type="priority" x="-4582.1" y="1612.9" />
    <node id="node_266" type="priority" x="-4684.7" y="1704.8" />
    <node id="node_267" type="priority" x="-6168.1" y="1575.4" />
    <node id="node_268" type="priority" x="-7256.7" y="1543.1" />
    <node id="node_269" type="priority" x="-4888.4" y="1160.5" />
    <node id="node_270" type="priority" x="-6801.9" y="1484.0" />
    <node id="node_271" type="priority" x="-5954.8" y="1413.5" />
    <node id="node_272" type="priority" x="-7006.8" y="1434.7" />
    <node id="node_273" type="priority" x="-4032.9" y="57.492" />
    <node id="node_274" type="priority" x="-7251.6" y="1623.3" />
    <node id="node_275" type="priority" x="-4603.2" y="1419.4" />
    <node id="node_276" type="priority" x="-6644.6" y="1910.9" />
    <node id="node_277" type="priority" x="-7114.0" y="1416.8" />
    <node id="node_278" type="priority" x="-4700.8" y="1464.4" />
    <node id="node_279" type="priority" x="-1959.6" y="3677.2" />
    <node id="node_280" type="priority" x="-1837.7" y="3258.7" />
    <node id="node_281" type="priority" x="-1772.5" y="3410.4" />
    <node id="node_282" type="priority" x="-1720.3" y="3286.3" />
    <node id="node_283" type="priority" x="-1865.9" y="3923.9" />
    <node id="node_284" type="priority" x="-1728.6" y="3700.0" />
    <node id="node_285" type="priority" x="-1688.6" y="3676.5" />
    <node id="node_286" type="priority" x="-1623.0" y="3625.8" />
    <node id="node_287" type="priority" x="-1668.3" y="3413.7" />
    <node id="node_288" type="priority" x="-1583.5" y="3537.4" />
    <node id="node_289" type="priority" x="-1973.7" y="4048.3" />
    <node id="node_290" type="priority" x="-1583.3" y="3626.6" />
    <node id="node_291" type="priority" x="-1531.6" y="3510.3" />
    <node id="node_292" type="priority" x="-1585.8" y="3137.9" />
    <node id="node_293" tl="GS_1066742878" type="traffic_light" x="-1596.8" y="3276.4" />
    <node id="node_294" type="priority" x="-1777.9" y="3295.5" />
    <node id="node_295" tl="GS_1066742913" type="traffic_light" x="-1786.1" y="3156.8" />
    <node id="node_296" type="priority" x="-3940.7" y="2252.7" />
    <node id="node_297" type="priority" x="-3606.1" y="2253.6" />
    <node id="node_298" type="priority" x="-3105.6" y="2336.3" />
    <node id="node_299" type="priority" x="-3794.2" y="2268.9" />
    <node id="node_300" type="priority" x="-3772.7" y="2028.0" />
    <node id="node_301" type="priority" x="-3154.7" y="2313.8" />
    <node id="node_302" type="priority" x="-3430.2" y="2257.7" />
    <node id="node_303" type="priority" x="-3741.0" y="2199.1" />
    <node id="node_304" type="priority" x="-2584.3" y="2533.9" />
    <node id="node_305" type="priority" x="-2679.8" y="2567.3" />
    <node id="node_306" type="priority" x="-2866.1" y="2555.3" />
    <node id="node_307" type="priority" x="383.15" y="5435.6" />
    <node id="node_308" type="priority" x="-559.5" y="4770.7" />
    <node id="node_309" type="priority" x="-279.31" y="5864.3" />
    <node id="node_310" type="priority" x="-17.942" y="5062.6" />
    <node id="node_311" type="priority" x="-385.5" y="5245.8" />
    <node id="node_312" type="priority" x="-465.96" y="4592.9" />
    <node id="node_313" type="priority" x="-453.54" y="4648.7" />
    <node id="node_314" type="priority" x="-218.04" y="5029.4" />
    <node id="node_315" type="priority" x="-464.01" y="4629.5" />
    <node id="node_316" type="priority" x="-149.84" y="5547.9" />
    <node id="node_317" type="priority" x="187.35" y="5424.7" />
    <node id="node_318" type="priority" x="-336.96" y="4668.4" />
    <node id="node_319" type="priority" x="338.62" y="5483.5" />
    <node id="node_320" tl="GS_1067889614" type="traffic_light" x="467.97" y="5405.6" />
    <node id="node_321" type="priority" x="365.61" y="5405.0" />
    <node id="node_322" type="priority" x="-491.94" y="4685.6" />
    <node id="node_323" type="priority" x="71.73" y="6267.7" />
    <node id="node_324" type="priority" x="-281.2" y="5065.4" />
    <node id="node_325" type="priority" x="285.47" y="5318.6" />
    <node id="node_326" type="priority" x="101.54" y="5139.5" />
    <node id="node_327" type="priority" x="37.569" y="5240.7" />
    <node id="node_328" type="priority" x="-330.22" y="4855.4" />
    <node id="node_329" type="priority" x="317.09" y="5428.2" />
    <node id="node_330" type="priority" x="25.188" y="4982.6" />
    <node id="node_331" type="priority" x="-238.03" y="4896.4" />
    <node id="node_332" type="priority" x="-201.89" y="5114.6" />
    <node id="node_333" type="priority" x="-379.82" y="4786.0" />
    <node id="node_334" type="priority" x="-432.45" y="4791.5" />
    <node id="node_335" type="priority" x="-278.66" y="4674.8" />
    <node id="node_336" type="priority" x="-231.36" y="4980.8" />
    <node id="node_337" type="priority" x="76.997" y="5069.5" />
    <node id="node_338" type="priority" x="141.34" y="5337.8" />
    <node id="node_339" type="priority" x="322.46" y="5519.4" />
    <node id="node_340" type="priority" x="442.01" y="5601.4" />
    <node id="node_341" type="priority" x="-545.0" y="4701.4" />
    <node id="node_342" type="priority" x="-283.04" y="4955.2" />
    <node id="node_343" type="priority" x="249.15" y="5464.0" />
    <node id="node_344" type="priority" x="227.9" y="5190.1" />
    <node id="node_345" type="priority" x="348.7" y="5692.4" />
    <node id="node_346" type="priority" x="381.15" y="5452.6" />
    <node id="node_347" type="priority" x="-941.61" y="-6044.4" />
    <node id="node_348" type="priority" x="-665.85" y="-5342.5" />
    <node id="node_349" type="priority" x="-2244.7" y="-5365.6" />
    <node id="node_350" type="priority" x="-700.04" y="-4993.3" />
    <node id="node_351" type="priority" x="-689.42" y="-4947.7" />
    <node id="node_352" type="priority" x="-779.39" y="-5732.8" />
    <node id="node_353" type="priority" x="-1280.9" y="-6099.2" />
    <node id="node_354" type="priority" x="-1266.7" y="-6124.2" />
    <node id="node_355" type="priority" x="-710.47" y="-5580.0" />
    <node id="node_356" type="priority" x="-771.19" y="-5818.1" />
    <node id="node_357" type="priority" x="-933.06" y="-5825.5" />
    <node id="node_358" type="priority" x="-1248.2" y="-6135.0" />
    <node id="node_359" type="priority" x="-865.21" y="-5986.9" />
    <node id="node_360" type="priority" x="-628.74" y="-5219.5" />
    <node id="node_361" type="priority" x="-2100.3" y="-4815.0" />
    <node id="node_362" type="priority" x="-1914.6" y="-4757.7" />
    <node id="node_363" type="priority" x="-1576.1" y="-5099.4" />
    <node id="node_364" type="priority" x="-1530.9" y="-5611.0" />
    <node id="node_365" type="priority" x="-1640.9" y="3537.0" />
    <node id="node_366" type="priority" x="-1601.4" y="3571.7" />
    <node id="node_367" type="priority" x="-1402.6" y="3374.3" />
    <node id="node_368" type="priority" x="-1527.1" y="3356.3" />
    <node id="node_369" type="priority" x="-1426.0" y="3371.1" />
    <node id="node_370" type="priority" x="-1426.4" y="3234.8" />
    <node id="node_371" type="priority" x="-1750.9" y="3313.6" />
    <node id="node_372" type="priority" x="-2072.9" y="3686.0" />
    <node id="node_373" type="priority" x="-2208.3" y="4300.8" />
    <node id="node_374" type="priority" x="-2004.8" y="11324.0" />
    <node id="node_375" type="priority" x="-2411.1" y="6513.5" />
    <node id="node_376" type="priority" x="-2067.9" y="11370.0" />
    <node id="node_377" type="priority" x="-2615.1" y="6611.8" />
    <node id="node_378" type="priority" x="-2001.6" y="11489.0" />
    <node id="node_379" type="priority" x="-2288.7" y="4623.6" />
    <node id="node_380" type="priority" x="4736.2" y="-4929.7" />
    <node id="node_381" type="priority" x="4774.3" y="-5024.1" />
    <node id="node_382" type="priority" x="4763.0" y="-4937.6" />
    <node id="node_383" type="priority" x="4762.6" y="-4932.1" />
    <node id="node_384" type="priority" x="4562.4" y="-4742.7" />
    <node id="node_385" type="priority" x="4749.2" y="-4965.5" />
    <node id="node_386" type="priority" x="4551.9" y="-4742.1" />
    <node id="node_387" type="priority" x="4554.7" y="-4739.6" />
    <node id="node_388" type="priority" x="1542.5" y="1056.6" />
    <node id="node_389" type="priority" x="625.79" y="1883.0" />
    <node id="node_390" type="priority" x="-6380.0" y="-79.344" />
    <node id="node_391" type="priority" x="-6414.4" y="-105.72" />
    <node id="node_392" type="priority" x="-7296.5" y="215.2" />
    <node id="node_393" type="priority" x="-5800.5" y="-2912.8" />
    <node id="node_394" type="priority" x="-5819.0" y="-2871.5" />
    <node id="node_395" type="priority" x="-6081.4" y="-2652.3" />
    <node id="node_396" type="priority" x="-2102.5" y="2662.9" />
    <node id="node_397" type="priority" x="-2382.7" y="2833.6" />
    <node id="node_398" type="priority" x="-2158.0" y="2754.3" />
    <node id="node_399" type="priority" x="-2187.8" y="2776.5" />
    <node id="node_400" type="priority" x="-2054.3" y="2736.5" />
    <node id="node_401" type="priority" x="-2316.4" y="2872.9" />
    <node id="node_402" type="priority" x="-2390.8" y="2947.0" />
    <node id="node_403" type="priority" x="-2390.7" y="2977.2" />
    <node id="node_404" type="priority" x="-2982.6" y="3767.3" />
    <node id="node_405" type="priority" x="-2799.6" y="3563.8" />
    <node id="node_406" type="priority" x="-958.63" y="-4416.5" />
    <node id="node_407" type="priority" x="-1303.6" y="-3895.8" />
    <node id="node_408" type="priority" x="-1103.9" y="-4367.6" />
    <node id="node_409" type="priority" x="-1375.0" y="-3836.0" />
    <node id="node_410" type="priority" x="-1305.7" y="-3982.6" />
    <node id="node_411" type="priority" x="-1338.4" y="-4047.4" />
    <node id="node_412" type="priority" x="2438.1" y="-3587.4" />
    <node id="node_413" type="priority" x="2563.4" y="-3439.2" />
    <node id="node_414" type="priority" x="1602.6" y="1391.3" />
    <node id="node_415" type="priority" x="1042.3" y="1536.9" />
    <node id="node_416" type="priority" x="4078.5" y="-741.17" />
    <node id="node_417" type="priority" x="-588.63" y="3882.2" />
    <node id="node_418" type="priority" x="-2694.4" y="3893.7" />
    <node id="node_419" tl="GS_1163010482" type="traffic_light" x="-548.68" y="3907.2" />
    <node id="node_420" type="priority" x="-616.21" y="-456.78" />
    <node id="node_421" type="priority" x="778.46" y="270.28" />
    <node id="node_422" type="priority" x="824.18" y="-79.384" />
    <node id="node_423" tl="GS_1166168346" type="traffic_light" x="791.94" y="108.55" />
    <node id="node_424" type="priority" x="768.85" y="-154.31" />
    <node id="node_425" type="priority" x="832.04" y="75.058" />
    <node id="node_426" type="priority" x="1036.7" y="-141.34" />
    <node id="node_427" type="priority" x="960.23" y="305.49" />
    <node id="node_428" type="priority" x="1024.0" y="-68.799" />
    <node id="node_429" type="priority" x="771.05" y="281.7" />
    <node id="node_430" tl="GS_1166168462" type="traffic_light" x="1074.3" y="61.104" />
    <node id="node_431" type="priority" x="794.99" y="200.39" />
    <node id="node_432" tl="GS_1166168470" type="traffic_light" x="1087.1" y="99.933" />
    <node id="node_433" type="priority" x="769.96" y="-277.78" />
    <node id="node_434" tl="GS_1166168480" type="traffic_light" x="824.68" y="-58.632" />
    <node id="node_435" type="priority" x="945.13" y="-97.095" />
    <node id="node_436" type="priority" x="763.92" y="-22.699" />
    <node id="node_437" type="priority" x="1187.5" y="152.59" />
    <node id="node_438" type="priority" x="966.12" y="217.84" />
    <node id="node_439" type="priority" x="814.95" y="-99.083" />
    <node id="node_440" type="priority" x="-581.38" y="-537.21" />
    <node id="node_441" type="priority" x="1727.9" y="2231.3" />