<?xml version='1.0' encoding='UTF-8'?>
<nodes xmlns:xsi="http://www.w3.org/2001/XMLSchema-instance" version="0.27" xsi:noNamespaceSchemaLocation="http://sumo.dlr.de/xsd/nodes_file.xsd">
    <location convBoundary="2208.92,522.44,21219.92,15402.46" netOffset="-224973.31,-2700122.99" origBoundary="54.286966,24.391306,54.609531,24.591038" projParameter="+proj=utm +zone=40 +ellps=WGS84 +datum=WGS84 +units=m +no_defs" />

    <node id="node_0" type="priority" x="497820.0" y="-382710.0" />
    <node id="node_1" type="priority" x="174980.0" y="335920.0" />
    <node id="node_2" type="priority" x="73479.0" y="308420.0" />
    <node id="node_3" tl="GS_1003388266" type="traffic_light" x="-52033.0" y="15547.0" />
    <node id="node_4" type="priority" x="12824.0" y="10235.0" />
    <node id="node_5" type="priority" x="-54304.0" y="15204.0" />
    <node id="node_6" tl="GS_1003388319" type="traffic_light" x="16244.0" y="11219.0" />
    <node id="node_7" type="priority" x="-153000.0" y="335050.0" />
    <node id="node_8" type="priority" x="-115670.0" y="304860.0" />
    <node id="node_9" type="priority" x="-21488.0" y="218150.0" />
    <node id="node_10" type="priority" x="-587690.0" y="45721.0" />
    <node id="node_11" type="priority" x="-585260.0" y="46207.0" />
    <node id="node_12" type="priority" x="-697070.0" y="-75528.0" />
    <node id="node_13" type="priority" x="-610820.0" y="-50810.0" />
    <node id="node_14" type="unregulated" x="-652710.0" y="-44186.0" />
    <node id="node_15" type="unregulated" x="-648730.0" y="-56016.0" />
    <node id="node_16" type="priority" x="-669060.0" y="-68514.0" />
    <node id="node_17" type="priority" x="659750.0" y="-340720.0" />
    <node id="node_18" type="priority" x="657250.0" y="-340780.0" />
    <node id="node_19" type="priority" x="-32639.0" y="289540.0" />
    <node id="node_20" type="priority" x="-34617.0" y="285450.0" />
    <node id="node_21" type="priority" x="-34710.0" y="288530.0" />
    <node id="node_22" type="priority" x="-223200.0" y="299470.0" />
    <node id="node_23" type="priority" x="-30908.0" y="290590.0" />
    <node id="node_24" type="priority" x="-223870.0" y="303240.0" />
    <node id="node_25" type="priority" x="-264040.0" y="239530.0" />
    <node id="node_26" type="priority" x="-291400.0" y="179810.0" />
    <node id="node_27" type="priority" x="-564300.0" y="54603.0" />
    <node id="node_28" type="priority" x="-346070.0" y="137420.0" />
    <node id="node_29" type="priority" x="-288740.0" y="224470.0" />
    <node id="node_30" type="priority" x="-267420.0" y="241200.0" />
    <node id="node_31" type="priority" x="-287850.0" y="183820.0" />
    <node id="node_32" type="priority" x="-285980.0" y="222750.0" />
    <node id="node_33" type="priority" x="-285880.0" y="180380.0" />
    <node id="node_34" type="priority" x="-287010.0" y="224530.0" />
    <node id="node_35" type="priority" x="-290430.0" y="183410.0" />
    <node id="node_36" type="priority" x="-189130.0" y="313190.0" />
    <node id="node_37" type="priority" x="-172690.0" y="356470.0" />
    <node id="node_38" type="priority" x="-197430.0" y="326030.0" />
    <node id="node_39" type="priority" x="-246100.0" y="303260.0" />
    <node id="node_40" type="priority" x="-171220.0" y="341230.0" />
    <node id="node_41" type="priority" x="-201410.0" y="343630.0" />
    <node id="node_42" type="priority" x="-190870.0" y="327850.0" />
    <node id="node_43" type="priority" x="-170380.0" y="330370.0" />
    <node id="node_44" type="priority" x="-212140.0" y="320490.0" />
    <node id="node_45" type="priority" x="-184920.0" y="316750.0" />
    <node id="node_46" type="priority" x="-250180.0" y="272790.0" />
    <node id="node_47" type="priority" x="-252880.0" y="271620.0" />
    <node id="node_48" type="priority" x="-250170.0" y="272170.0" />
    <node id="node_49" type="priority" x="-250020.0" y="274180.0" />
    <node id="node_50" type="priority" x="-251100.0" y="270720.0" />
    <node id="node_51" type="priority" x="-251530.0" y="270600.0" />
    <node id="node_52" type="priority" x="-251310.0" y="273530.0" />
    <node id="node_53" type="priority" x="-254460.0" y="268970.0" />
    <node id="node_54" type="priority" x="-225310.0" y="212970.0" />
    <node id="node_55" type="priority" x="-227040.0" y="212770.0" />
    <node id="node_56" type="priority" x="124400.0" y="165220.0" />
    <node id="node_57" type="priority" x="-242160.0" y="-36310.0" />
    <node id="node_58" type="priority" x="-233600.0" y="-30959.0" />
    <node id="node_59" type="priority" x="-239110.0" y="-37909.0" />
    <node id="node_60" type="priority" x="-233270.0" y="-28974.0" />
    <node id="node_61" type="priority" x="-245530.0" y="-39733.0" />
    <node id="node_62" type="priority" x="-244020.0" y="-37334.0" />
    <node id="node_63" type="priority" x="-242840.0" y="-41440.0" />
    <node id="node_64" type="priority" x="-239890.0" y="-35650.0" />
    <node id="node_65" type="priority" x="-239390.0" y="-41602.0" />
    <node id="node_66" type="priority" x="-235680.0" y="-31406.0" />
    <node id="node_67" type="priority" x="-244020.0" y="-40491.0" />
    <node id="node_68" type="priority" x="-270860.0" y="-59921.0" />
    <node id="node_69" type="priority" x="-254250.0" y="-47743.0" />
    <node id="node_70" type="priority" x="-320860.0" y="-110690.0" />
    <node id="node_71" type="priority" x="-326790.0" y="-112040.0" />
    <node id="node_72" type="priority" x="-299930.0" y="-82598.0" />
    <node id="node_73" type="priority" x="-342560.0" y="-122260.0" />
    <node id="node_74" type="priority" x="-300760.0" y="-76900.0" />
    <node id="node_75" type="priority" x="-308110.0" y="-83611.0" />
    <node id="node_76" type="unregulated" x="-281970.0" y="-139650.0" />
    <node id="node_77" type="priority" x="-328710.0" y="-106790.0" />
    <node id="node_78" type="priority" x="-322890.0" y="-98506.0" />
    <node id="node_79" type="priority" x="-341640.0" y="-114650.0" />
    <node id="node_80" type="unregulated" x="-283420.0" y="-138910.0" />
    <node id="node_81" type="priority" x="-330830.0" y="-107640.0" />
    <node id="node_82" type="priority" x="-344630.0" y="-121180.0" />
    <node id="node_83" type="priority" x="-337610.0" y="-115650.0" />
    <node id="node_84" type="priority" x="-332480.0" y="-109400.0" />
    <node id="node_85" type="priority" x="-441710.0" y="-97332.0" />
    <node id="node_86" type="priority" x="-424560.0" y="-84677.0" />
    <node id="node_87" type="priority" x="-428350.0" y="-89221.0" />
    <node id="node_88" type="priority" x="-330830.0" y="-124610.0" />
    <node id="node_89" type="priority" x="-318710.0" y="-107910.0" />
    <node id="node_90" type="priority" x="-322080.0" y="-112710.0" />
    <node id="node_91" type="priority" x="-328280.0" y="-120320.0" />
    <node id="node_92" type="priority" x="-338970.0" y="-133090.0" />
    <node id="node_93" type="priority" x="-320020.0" y="-90687.0" />
    <node id="node_94" type="priority" x="-191220.0" y="-115910.0" />
    <node id="node_95" type="priority" x="-201470.0" y="-99468.0" />
    <node id="node_96" type="priority" x="-199370.0" y="-104080.0" />
    <node id="node_97" type="priority" x="-231660.0" y="-109580.0" />
    <node id="node_98" type="priority" x="-206690.0" y="-147570.0" />
    <node id="node_99" type="priority" x="-191460.0" y="-116950.0" />
    <node id="node_100" type="priority" x="-194650.0" y="-108490.0" />
    <node id="node_101" type="priority" x="-238320.0" y="-108600.0" />
    <node id="node_102" type="priority" x="-210560.0" y="-148650.0" />
    <node id="node_103" type="priority" x="-213100.0" y="-140890.0" />
    <node id="node_104" type="priority" x="-214690.0" y="-141260.0" />
    <node id="node_105" type="priority" x="-205500.0" y="-97174.0" />
    <node id="node_106" type="priority" x="-200840.0" y="-98599.0" />
    <node id="node_107" type="priority" x="-212480.0" y="-140210.0" />
    <node id="node_108" type="priority" x="-213400.0" y="-142290.0" />
    <node id="node_109" type="priority" x="-234940.0" y="-111340.0" />
    <node id="node_110" type="priority" x="-202800.0" y="-130970.0" />
    <node id="node_111" type="priority" x="-188100.0" y="-124850.0" />
    <node id="node_112" type="priority" x="-198530.0" y="-102110.0" />
    <node id="node_113" type="priority" x="-237120.0" y="-110780.0" />
    <node id="node_114" type="priority" x="-195840.0" y="-110100.0" />
    <node id="node_115" type="priority" x="-202030.0" y="-99894.0" />
    <node id="node_116" type="priority" x="-200120.0" y="-99492.0" />
    <node id="node_117" type="priority" x="-186740.0" y="-121470.0" />
    <node id="node_118" type="priority" x="-198870.0" y="-103550.0" />
    <node id="node_119" type="priority" x="-236430.0" y="-107100.0" />
    <node id="node_120" type="priority" x="-231170.0" y="-107140.0" />
    <node id="node_121" type="priority" x="-197570.0" y="-103250.0" />
    <node id="node_122" type="priority" x="-195140.0" y="-120100.0" />
    <node id="node_123" type="priority" x="-195270.0" y="-109710.0" />
    <node id="node_124" type="priority" x="-200440.0" y="-127620.0" />
    <node id="node_125" type="priority" x="-233400.0" y="-112580.0" />
    <node id="node_126" type="priority" x="-232520.0" y="-104940.0" />
    <node id="node_127" type="priority" x="-194110.0" y="-109450.0" />
    <node id="node_128" type="priority" x="-160830.0" y="-40545.0" />
    <node id="node_129" type="priority" x="-164270.0" y="-46510.0" />
    <node id="node_130" type="priority" x="-163100.0" y="-51764.0" />
    <node id="node_131" type="priority" x="-161350.0" y="-43157.0" />
    <node id="node_132" type="priority" x="-223500.0" y="-16140.0" />
    <node id="node_133" tl="GS_1052165761" type="traffic_light" x="-48594.0" y="19339.0" />
    <node id="node_134" type="priority" x="-288030.0" y="11944.0" />
    <node id="node_135" type="priority" x="-118340.0" y="-54975.0" />
    <node id="node_136" type="priority" x="-100910.0" y="-88591.0" />
    <node id="node_137" type="priority" x="-102040.0" y="-86885.0" />
    <node id="node_138" type="priority" x="-146910.0" y="40671.0" />
    <node id="node_139" type="priority" x="-301830.0" y="31410.0" />
    <node id="node_140" type="priority" x="-219320.0" y="-14689.0" />
    <node id="node_141" type="priority" x="-288080.0" y="16735.0" />
    <node id="node_142" type="priority" x="-338340.0" y="79241.0" />
    <node id="node_143" type="priority" x="-196850.0" y="7118.4" />
    <node id="node_144" type="priority" x="-119480.0" y="-87239.0" />
    <node id="node_145" type="priority" x="-196630.0" y="11515.0" />
    <node id="node_146" type="priority" x="-284850.0" y="12826.0" />
    <node id="node_147" type="priority" x="-222340.0" y="-10917.0" />
    <node id="node_148" type="priority" x="-50522.0" y="-13117.0" />
    <node id="node_149" type="priority" x="-61119.0" y="-86990.0" />
    <node id="node_150" type="priority" x="-224300.0" y="-13174.0" />
    <node id="node_151" type="priority" x="-105620.0" y="-94720.0" />
    <node id="node_152" type="priority" x="-60390.0" y="-83573.0" />
    <node id="node_153" type="priority" x="-198840.0" y="9726.0" />
    <node id="node_154" type="priority" x="-119130.0" y="-61615.0" />
    <node id="node_155" type="priority" x="-102690.0" y="-83981.0" />
    <node id="node_156" type="priority" x="-100320.0" y="-78542.0" />
    <node id="node_157" type="priority" x="-194130.0" y="9415.3" />
    <node id="node_158" type="priority" x="-117080.0" y="-86994.0" />
    <node id="node_159" type="priority" x="-219310.0" y="-12416.0" />
    <node id="node_160" type="priority" x="-119340.0" y="-50313.0" />
    <node id="node_161" type="priority" x="-52374.0" y="22186.0" />
    <node id="node_162" type="priority" x="-285670.0" y="10128.0" />
    <node id="node_163" type="priority" x="-194390.0" y="6915.3" />
    <node id="node_164" type="priority" x="-284550.0" y="15249.0" />
    <node id="node_165" type="priority" x="-289860.0" y="15410.0" />
    <node id="node_166" type="priority" x="-318390.0" y="43705.0" />
    <node id="node_167" type="priority" x="-49911.0" y="17340.0" />
    <node id="node_168" type="priority" x="-289910.0" y="13598.0" />
    <node id="node_169" type="priority" x="-107380.0" y="-85917.0" />
    <node id="node_170" type="priority" x="-341140.0" y="80709.0" />
    <node id="node_171" tl="GS_1052166069" type="traffic_light" x="-55323.0" y="20971.0" />
    <node id="node_172" type="priority" x="-122170.0" y="-59478.0" />
    <node id="node_173" type="priority" x="-286280.0" y="17023.0" />
    <node id="node_174" type="priority" x="-120990.0" y="-53331.0" />
    <node id="node_175" type="priority" x="-199410.0" y="7117.8" />
    <node id="node_176" type="priority" x="-224370.0" y="-15113.0" />
    <node id="node_177" type="priority" x="-299240.0" y="35266.0" />
    <node id="node_178" type="priority" x="-144980.0" y="40104.0" />
    <node id="node_179" type="priority" x="-118600.0" y="-60056.0" />
    <node id="node_180" type="priority" x="-220710.0" y="-12035.0" />
    <node id="node_181" type="priority" x="-106700.0" y="-90878.0" />
    <node id="node_182" type="priority" x="-56882.0" y="19487.0" />
    <node id="node_183" type="priority" x="-106520.0" y="-88676.0" />
    <node id="node_184" type="priority" x="-221390.0" y="-16306.0" />
    <node id="node_185" type="priority" x="-121670.0" y="-57693.0" />
    <node id="node_186" tl="GS_1052166282" type="traffic_light" x="-57770.0" y="16463.0" />
    <node id="node_187" type="priority" x="-213070.0" y="199610.0" />
    <node id="node_188" type="priority" x="-229530.0" y="206370.0" />
    <node id="node_189" type="priority" x="-210650.0" y="222950.0" />
    <node id="node_190" type="priority" x="-184390.0" y="245210.0" />
    <node id="node_191" type="priority" x="-196510.0" y="208840.0" />
    <node id="node_192" type="priority" x="-199690.0" y="212600.0" />
    <node id="node_193" type="priority" x="-190220.0" y="214660.0" />
    <node id="node_194" type="priority" x="-216110.0" y="208790.0" />
    <node id="node_195" type="priority" x="-201820.0" y="214230.0" />
    <node id="node_196" type="priority" x="-181290.0" y="245780.0" />
    <node id="node_197" type="priority" x="-232340.0" y="258520.0" />
    <node id="node_198" type="priority" x="-207370.0" y="217500.0" />
    <node id="node_199" type="priority" x="-193940.0" y="218220.0" />
    <node id="node_200" type="priority" x="-225360.0" y="206430.0" />
    <node id="node_201" type="priority" x="-233010.0" y="255930.0" />
    <node id="node_202" type="priority" x="-200520.0" y="198850.0" />
    <node id="node_203" type="priority" x="-218010.0" y="238500.0" />
    <node id="node_204" type="priority" x="-201200.0" y="204150.0" />
    <node id="node_205" type="priority" x="-217470.0" y="237450.0" />
    <node id="node_206" type="priority" x="-228740.0" y="254280.0" />
    <node id="node_207" type="priority" x="-205910.0" y="209480.0" />
    <node id="node_208" type="priority" x="-222120.0" y="227650.0" />
    <node id="node_209" type="priority" x="-191350.0" y="224560.0" />
    <node id="node_210" type="priority" x="-204310.0" y="212100.0" />
    <node id="node_211" type="priority" x="-229040.0" y="258700.0" />
    <node id="node_212" type="priority" x="-222050.0" y="241800.0" />
    <node id="node_213" type="priority" x="-195810.0" y="220120.0" />
    <node id="node_214" type="priority" x="-209530.0" y="215200.0" />
    <node id="node_215" type="priority" x="-197740.0" y="210550.0" />
    <node id="node_216" type="priority" x="-198840.0" y="200340.0" />
    <node id="node_217" type="priority" x="-185240.0" y="228950.0" />
    <node id="node_218" type="priority" x="-189560.0" y="213420.0" />
    <node id="node_219" type="priority" x="-191870.0" y="216230.0" />
    <node id="node_220" type="priority" x="-196080.0" y="207400.0" />
    <node id="node_221" type="priority" x="-185260.0" y="218530.0" />
    <node id="node_222" type="priority" x="-193970.0" y="238360.0" />
    <node id="node_223" type="priority" x="-231810.0" y="210430.0" />
    <node id="node_224" type="priority" x="-211080.0" y="212820.0" />
    <node id="node_225" type="priority" x="-219380.0" y="206170.0" />
    <node id="node_226" type="priority" x="-184530.0" y="217380.0" />
    <node id="node_227" type="priority" x="-214080.0" y="198860.0" />
    <node id="node_228" type="priority" x="-176960.0" y="235930.0" />
    <node id="node_229" tl="GS_1061695272" type="traffic_light" x="-180910.0" y="248120.0" />
    <node id="node_230" type="priority" x="-229530.0" y="252420.0" />
    <node id="node_231" tl="GS_1061695290" type="traffic_light" x="-182720.0" y="244110.0" />
    <node id="node_232" type="priority" x="-200510.0" y="201080.0" />
    <node id="node_233" type="priority" x="-94816.0" y="-17495.0" />
    <node id="node_234" type="priority" x="-24332.0" y="-23399.0" />
    <node id="node_235" type="priority" x="-14730.0" y="-38485.0" />
    <node id="node_236" type="priority" x="-12177.0" y="-37255.0" />
    <node id="node_237" type="priority" x="-26639.0" y="-22356.0" />
    <node id="node_238" type="priority" x="-18769.0" y="-30955.0" />
    <node id="node_239" type="priority" x="-82480.0" y="-38133.0" />
    <node id="node_240" type="priority" x="-20469.0" y="-28378.0" />
    <node id="node_241" type="priority" x="-96099.0" y="-16427.0" />
    <node id="node_242" type="priority" x="-99401.0" y="-19958.0" />
    <node id="node_243" type="priority" x="-290650.0" y="77943.0" />
    <node id="node_244" type="priority" x="-241330.0" y="65521.0" />
    <node id="node_245" type="priority" x="-311240.0" y="69251.0" />
    <node id="node_246" type="priority" x="-235400.0" y="67659.0" />
    <node id="node_247" type="priority" x="-305180.0" y="84705.0" />
    <node id="node_248" type="priority" x="-288590.0" y="69322.0" />
    <node id="node_249" type="priority" x="-296230.0" y="128550.0" />
    <node id="node_250" type="priority" x="-300170.0" y="68712.0" />
    <node id="node_251" type="priority" x="-316270.0" y="85214.0" />
    <node id="node_252" type="priority" x="-309530.0" y="69230.0" />
    <node id="node_253" type="priority" x="-301220.0" y="126180.0" />
    <node id="node_254" type="priority" x="-335670.0" y="85437.0" />
    <node id="node_255" type="priority" x="-240700.0" y="67251.0" />
    <node id="node_256" type="priority" x="-290630.0" y="73611.0" />
    <node id="node_257" type="priority" x="-300910.0" y="127770.0" />
    <node id="node_258" type="priority" x="-294500.0" y="69926.0" />
    <node id="node_259" type="priority" x="-307170.0" y="85270.0" />
    <node id="node_260" type="priority" x="-295660.0" y="126600.0" />
    <node id="node_261" type="priority" x="-335740.0" y="81147.0" />
    <node id="node_262" type="priority" x="-292850.0" y="76229.0" />
    <node id="node_263" type="priority" x="-306570.0" y="69236.0" />
    <node id="node_264" type="priority" x="-247730.0" y="60793.0" />
    <node id="node_265" type="priority" x="-295060.0" y="125140.0" />
    <node id="node_266" type="priority" x="-298490.0" y="129590.0" />
    <node id="node_267" type="priority" x="-298420.0" y="83731.0" />
    <node id="node_268" type="priority" x="-301590.0" y="67356.0" />
    <node id="node_269" type="priority" x="-285250.0" y="96616.0" />
    <node id="node_270" type="priority" x="-291340.0" y="76955.0" />
    <node id="node_271" type="priority" x="-298490.0" y="85805.0" />
    <node id="node_272" type="priority" x="-293930.0" y="67853.0" />
    <node id="node_273" type="priority" x="-235470.0" y="65884.0" />
    <node id="node_274" type="priority" x="-301950.0" y="69753.0" />
    <node id="node_275" type="priority" x="-296750.0" y="123270.0" />
    <node id="node_276" type="priority" x="-308200.0" y="85449.0" />
    <node id="node_277" type="priority" x="-293410.0" y="69088.0" />
    <node id="node_278" type="priority" x="-299070.0" y="123500.0" />
    <node id="node_279" type="priority" x="-232330.0" y="253600.0" />
    <node id="node_280" type="priority" x="-204360.0" y="269250.0" />
    <node id="node_281" type="priority" x="-204070.0" y="258600.0" />
    <node id="node_282" type="priority" x="-194180.0" y="265770.0" />
    <node id="node_283" type="priority" x="-237490.0" y="259630.0" />
    <node id="node_284" type="priority" x="-225620.0" y="262120.0" />
    <node id="node_285" type="priority" x="-221790.0" y="264170.0" />
    <node id="node_286" type="priority" x="-210880.0" y="265040.0" />
    <node id="node_287" type="priority" x="-196470.0" y="259750.0" />
    <node id="node_288" type="priority" x="-198940.0" y="262590.0" />
    <node id="node_289" type="priority" x="-221080.0" y="241530.0" />
    <node id="node_290" type="priority" x="-204150.0" y="266590.0" />
    <node id="node_291" type="priority" x="-199800.0" y="265010.0" />
    <node id="node_292" type="priority" x="-182050.0" y="250000.0" />
    <node id="node_293" tl="GS_1066742878" type="traffic_light" x="-184420.0" y="250420.0" />
    <node id="node_294" type="priority" x="-186010.0" y="248640.0" />
    <node id="node_295" tl="GS_1066742913" type="traffic_light" x="-187210.0" y="246670.0" />
    <node id="node_296" type="priority" x="-295150.0" y="191780.0" />
    <node id="node_297" type="priority" x="-300730.0" y="192640.0" />
    <node id="node_298" type="priority" x="-311060.0" y="208120.0" />
    <node id="node_299" type="priority" x="-298280.0" y="192350.0" />
    <node id="node_300" type="priority" x="-296190.0" y="185490.0" />
    <node id="node_301" type="priority" x="-311660.0" y="206850.0" />
    <node id="node_302" type="priority" x="-305150.0" y="189160.0" />
    <node id="node_303" type="priority" x="-297450.0" y="190710.0" />
    <node id="node_304" type="priority" x="-303450.0" y="221130.0" />
    <node id="node_305" type="priority" x="-307000.0" y="219810.0" />
    <node id="node_306" type="priority" x="-320260.0" y="199650.0" />
    <node id="node_307" type="priority" x="-51282.0" y="304680.0" />
    <node id="node_308" type="priority" x="-89865.0" y="328880.0" />
    <node id="node_309" type="priority" x="-65770.0" y="296930.0" />
    <node id="node_310" type="priority" x="-74323.0" y="319220.0" />
    <node id="node_311" type="priority" x="-85985.0" y="306570.0" />
    <node id="node_312" type="priority" x="-91677.0" y="321910.0" />
    <node id="node_313" type="priority" x="-91290.0" y="336400.0" />
    <node id="node_314" type="priority" x="-84726.0" y="307870.0" />
    <node id="node_315" type="priority" x="-91262.0" y="322570.0" />
    <node id="node_316" type="priority" x="-64370.0" y="299710.0" />
    <node id="node_317" type="priority" x="-63092.0" y="327410.0" />
    <node id="node_318" type="priority" x="-88195.0" y="312900.0" />
    <node id="node_319" type="priority" x="-50701.0" y="307830.0" />
    <node id="node_320" tl="GS_1067889614" type="traffic_light" x="-49605.0" y="300420.0" />
    <node id="node_321" type="priority" x="-51234.0" y="302410.0" />
    <node id="node_322" type="priority" x="-89975.0" y="323510.0" />
    <node id="node_323" type="priority" x="-62758.0" y="289990.0" />
    <node id="node_324" type="priority" x="-81822.0" y="325380.0" />
    <node id="node_325" type="priority" x="-57457.0" y="299090.0" />
    <node id="node_326" type="priority" x="-71082.0" y="320050.0" />
    <node id="node_327" type="priority" x="-70728.0" y="324790.0" />
    <node id="node_328" type="priority" x="-87068.0" y="333440.0" />
    <node id="node_329" type="priority" x="-54578.0" y="304720.0" />
    <node id="node_330" type="priority" x="-70851.0" y="305050.0" />
    <node id="node_331" type="priority" x="-84237.0" y="309130.0" />
    <node id="node_332" type="priority" x="-82023.0" y="322150.0" />
    <node id="node_333" type="priority" x="-87585.0" y="314280.0" />
    <node id="node_334" type="priority" x="-94522.0" y="334600.0" />
    <node id="node_335" type="priority" x="-86134.0" y="312510.0" />
    <node id="node_336" type="priority" x="-80098.0" y="326110.0" />
    <node id="node_337" type="priority" x="-68656.0" y="307340.0" />
    <node id="node_338" type="priority" x="-67812.0" y="324440.0" />
    <node id="node_339" type="priority" x="-52403.0" y="306160.0" />
    <node id="node_340" type="priority" x="-45833.0" y="308850.0" />
    <node id="node_341" type="priority" x="-91255.0" y="325420.0" />
    <node id="node_342" type="priority" x="-89136.0" y="333970.0" />
    <node id="node_343" type="priority" x="-69324.0" y="324680.0" />
    <node id="node_344" type="priority" x="-50838.0" y="311440.0" />
    <node id="node_345" type="priority" x="-56858.0" y="303050.0" />
    <node id="node_346" type="priority" x="-53182.0" y="299760.0" />
    <node id="node_347" type="priority" x="-49695.0" y="307750.0" />
    <node id="node_348" type="priority" x="-166760.0" y="-301920.0" />
    <node id="node_349" type="priority" x="-126630.0" y="-261840.0" />
    <node id="node_350" type="priority" x="-147700.0" y="-256550.0" />
    <node id="node_351" type="priority" x="-114750.0" y="-223600.0" />
    <node id="node_352" type="priority" x="-113290.0" y="-215350.0" />
    <node id="node_353" type="priority" x="-141280.0" y="-296330.0" />
    <node id="node_354" type="priority" x="-171200.0" y="-283240.0" />
    <node id="node_355" type="priority" x="-161480.0" y="-285090.0" />
    <node id="node_356" type="priority" x="-139670.0" y="-286630.0" />
    <node id="node_357" type="priority" x="-160020.0" y="-298730.0" />
    <node id="node_358" type="priority" x="-142660.0" y="-299920.0" />
    <node id="node_359" type="priority" x="-161320.0" y="-288810.0" />
    <node id="node_360" type="priority" x="-163810.0" y="-303780.0" />
    <node id="node_361" type="priority" x="-124880.0" y="-257770.0" />
    <node id="node_362" type="priority" x="-157330.0" y="-255560.0" />
    <node id="node_363" type="priority" x="-154920.0" y="-253790.0" />
    <node id="node_364" type="priority" x="-132420.0" y="-201030.0" />
    <node id="node_365" type="priority" x="-126020.0" y="-198090.0" />
    <node id="node_366" type="priority" x="-202840.0" y="261900.0" />
    <node id="node_367" type="priority" x="-205730.0" y="263040.0" />
    <node id="node_368" type="priority" x="-199160.0" y="269790.0" />
    <node id="node_369" type="priority" x="-196090.0" y="266320.0" />
    <node id="node_370" type="priority" x="-200150.0" y="274630.0" />
    <node id="node_371" type="priority" x="-203020.0" y="273090.0" />
    <node id="node_372" type="priority" x="-199900.0" y="258240.0" />
    <node id="node_373" type="priority" x="-235520.0" y="255890.0" />
    <node id="node_374" type="priority" x="-218210.0" y="235430.0" />
    <node id="node_375" type="priority" x="-159970.0" y="569270.0" />
    <node id="node_376" type="priority" x="-259220.0" y="547290.0" />
    <node id="node_377" type="priority" x="-161540.0" y="568570.0" />
    <node id="node_378" type="priority" x="-276140.0" y="583480.0" />
    <node id="node_379" type="priority" x="-159950.0" y="575570.0" />
    <node id="node_380" type="priority" x="-220640.0" y="236340.0" />
    <node id="node_381" type="priority" x="434700.0" y="-510450.0" />
    <node id="node_382" type="priority" x="436830.0" y="-513400.0" />
    <node id="node_383" type="priority" x="436080.0" y="-511020.0" />
    <node id="node_384" type="priority" x="435940.0" y="-510830.0" />
    <node id="node_385" type="priority" x="422840.0" y="-517710.0" />
    <node id="node_386" type="priority" x="434930.0" y="-511850.0" />
    <node id="node_387" type="priority" x="422320.0" y="-518920.0" />
    <node id="node_388" type="priority" x="422190.0" y="-518730.0" />
    <node id="node_389" type="priority" x="189800.0" y="-46571.0" />
    <node id="node_390" type="priority" x="58554.0" y="158660.0" />
    <node id="node_391" type="priority" x="-446050.0" y="80141.0" />
    <node id="node_392" type="priority" x="-443510.0" y="79381.0" />
    <node id="node_393" type="priority" x="-507330.0" y="12529.0" />
    <node id="node_394" type="priority" x="-346160.0" y="-28932.0" />
    <node id="node_395" type="priority" x="-360650.0" y="-30351.0" />
    <node id="node_396" type="priority" x="-386350.0" y="-20019.0" />
    <node id="node_397" type="priority" x="-278820.0" y="247530.0" />
    <node id="node_398" type="priority" x="-269270.0" y="235020.0" />
    <node id="node_399" type="priority" x="-257880.0" y="234080.0" />
    <node id="node_400" type="priority" x="-259540.0" y="233860.0" />
    <node id="node_401" type="priority" x="-275200.0" y="247210.0" />
    <node id="node_402" type="priority" x="-276150.0" y="239050.0" />
    <node id="node_403" type="priority" x="-252500.0" y="227260.0" />
    <node id="node_404" type="priority" x="-251410.0" y="230230.0" />
    <node id="node_405" type="priority" x="-248830.0" y="222490.0" />
    <node id="node_406" type="priority" x="-244490.0" y="222620.0" />
    <node id="node_407" type="priority" x="-94627.0" y="-207010.0" />
    <node id="node_408" type="priority" x="-92177.0" y="-197320.0" />
    <node id="node_409" type="priority" x="-91053.0" y="-206350.0" />
    <node id="node_410" type="priority" x="-94206.0" y="-197150.0" />
    <node id="node_411" type="priority" x="-96422.0" y="-199520.0" />
    <node id="node_412" type="priority" x="-98518.0" y="-198460.0" />
    <node id="node_413" type="priority" x="145180.0" y="-211500.0" />
    <node id="node_414" type="priority" x="169950.0" y="-217650.0" />