<?xml version='1.0' encoding='UTF-8'?>
<tlLogics xmlns:xsi="http://www.w3.org/2001/XMLSchema-instance" version="0.27" xsi:noNamespaceSchemaLocation="http://sumo.dlr.de/xsd/tllogic_file.xsd">
    <tlLogic id="1636604844" offset="0" programID="0" type="static">
        <phase duration="38" state="GGGG" />
        <phase duration="7" state="yyyy" />
        <phase duration="38" state="GGGG" />
        <phase duration="7" state="yyyy" />
    </tlLogic>
    <tlLogic id="1848176770" offset="0" programID="0" type="static">
        <phase duration="70" state="ggGGG" />
        <phase duration="7" state="ggyyy" />
        <phase duration="6" state="GGrrr" />
        <phase duration="7" state="yyrrr" />
    </tlLogic>
    <tlLogic id="1880519455" offset="0" programID="0" type="static">
        <phase duration="66" state="GGGggGG" />
        <phase duration="9" state="yyyggyy" />
        <phase duration="6" state="rrrGGrr" />
        <phase duration="9" state="rrryyrr" />
    </tlLogic>
    <tlLogic id="2345186082" offset="0" programID="0" type="static">
        <phase duration="41" state="GGrrrr" />
        <phase duration="4" state="yyrrrr" />
        <phase duration="41" state="rrGGGG" />
        <phase duration="4" state="rryyyy" />
    </tlLogic>
    <tlLogic id="2360583310" offset="0" programID="0" type="static">
        <phase duration="23" state="GGGrr" />
        <phase duration="7" state="yyyrr" />
        <phase duration="53" state="rrrGG" />
        <phase duration="7" state="rrryy" />
    </tlLogic>
    <tlLogic id="2360583310" offset="0" programID="1" type="static">
        <phase duration="23" state="GGGrr" />
        <phase duration="7" state="yyyrr" />
        <phase duration="53" state="rrrGG" />
        <phase duration="7" state="rrryy" />
    </tlLogic>
    <tlLogic id="261618070" offset="0" programID="0" type="static">
        <phase duration="38" state="GGGrrrrr" />
        <phase duration="7" state="yyyrrrrr" />
        <phase duration="38" state="rrrGGGGG" />
        <phase duration="7" state="rrryyyyy" />
    </tlLogic>
    <tlLogic id="261618086" offset="0" programID="0" type="static">
        <phase duration="32" state="GGGGGrrrrrggg" />
        <phase duration="7" state="yyyyyrrrrrggg" />
        <phase duration="6" state="rrrrrrrrrrGGG" />
        <phase duration="7" state="rrrrrrrrrryyy" />
        <phase duration="31" state="rrrrrGGGGGrrr" />
        <phase duration="7" state="rrrrryyyyyrrr" />
    </tlLogic>
    <tlLogic id="261663765" offset="0" programID="0" type="static">
        <phase duration="38" state="GGGGGrrr" />
        <phase duration="7" state="yyyyyrrr" />
        <phase duration="38" state="rrrrrGGG" />
        <phase duration="7" state="rrrrryyy" />
    </tlLogic>
    <tlLogic id="261665697" offset="0" programID="0" type="static">
        <phase duration="40" state="Grrrr" />
        <phase duration="5" state="yrrrr" />
        <phase duration="40" state="rGGGG" />
        <phase duration="5" state="ryyyy" />
    </tlLogic>
    <tlLogic id="261665698" offset="0" programID="0" type="static">
        <phase duration="38" state="GGGrrr" />
        <phase duration="7" state="yyyrrr" />
        <phase duration="38" state="rrrGGG" />
        <phase duration="7" state="rrryyy" />
    </tlLogic>
    <tlLogic id="261665704" offset="0" programID="0" type="static">
        <phase duration="38" state="GGGGr" />
        <phase duration="7" state="yyyyr" />
        <phase duration="38" state="rrrrG" />
        <phase duration="7" state="rrrry" />
    </tlLogic>
    <tlLogic id="292185814" offset="0" programID="0" type="static">
        <phase duration="36" state="GGrr" />
        <phase duration="9" state="yyrr" />
        <phase duration="36" state="rrGG" />
        <phase duration="9" state="rryy" />
    </tlLogic>
    <tlLogic id="3246729001" offset="0" programID="0" type="static">
        <phase duration="38" state="GGGGrrrrrGG" />
        <phase duration="7" state="yyyyrrrrryy" />
        <phase duration="38" state="rrrrGGGGGGG" />
        <phase duration="7" state="rrrryyyyyyy" />
    </tlLogic>
    <tlLogic id="3397743347" offset="0" programID="0" type="static">
        <phase duration="40" state="GGGGGGrrrrrr" />
        <phase duration="5" state="yyyyyyrrrrrr" />
        <phase duration="40" state="rrrrrrGGGGGG" />
        <phase duration="5" state="rrrrrryyyyyy" />
    </tlLogic>
    <tlLogic id="4001264891" offset="0" programID="0" type="static">
        <phase duration="36" state="GGGrr" />
        <phase duration="9" state="yyyrr" />
        <phase duration="36" state="rrrGG" />
        <phase duration="9" state="rrryy" />
    </tlLogic>
    <tlLogic id="4089204170" offset="0" programID="0" type="static">
        <phase duration="53" state="rrGGG" />
        <phase duration="7" state="rryyy" />
        <phase duration="23" state="GGrrr" />
        <phase duration="7" state="yyrrr" />
    </tlLogic>
    <tlLogic id="4090123719" offset="0" programID="0" type="static">
        <phase duration="53" state="rrGGGG" />
        <phase duration="7" state="rryyyy" />
        <phase duration="23" state="GGrrrr" />
        <phase duration="7" state="yyrrrr" />
    </tlLogic>
    <tlLogic id="799283720" offset="0" programID="0" type="static">
        <phase duration="36" state="GGGrrrr" />
        <phase duration="9" state="yyyrrrr" />
        <phase duration="36" state="rrrGGGG" />
        <phase duration="9" state="rrryyyy" />
    </tlLogic>
    <tlLogic id="799283946" offset="0" programID="0" type="static">
        <phase duration="36" state="GGGGrrrr" />
        <phase duration="9" state="yyyyrrrr" />
        <phase duration="36" state="rrrrGGGG" />
        <phase duration="9" state="rrrryyyy" />
    </tlLogic>
    <tlLogic id="799283999" offset="0" programID="0" type="static">
        <phase duration="85" state="GGGGG" />
        <phase duration="5" state="yyyyy" />
    </tlLogic>
    <tlLogic id="916386046" offset="0" programID="0" type="static">
        <phase duration="36" state="GGGrrr" />
        <phase duration="9" state="yyyrrr" />
        <phase duration="36" state="rrrGGG" />
        <phase duration="9" state="rrryyy" />
    </tlLogic>
    <tlLogic id="GS_1003388266" offset="0" programID="0" type="static">
        <phase duration="38" state="GGG" />
        <phase duration="7" state="yyy" />
        <phase duration="38" state="GGG" />
        <phase duration="7" state="yyy" />
    </tlLogic>
    <tlLogic id="GS_1003388319" offset="0" programID="0" type="static">
        <phase duration="38" state="GGG" />
        <phase duration="7" state="yyy" />
        <phase duration="38" state="GGG" />
        <phase duration="7" state="yyy" />
    </tlLogic>
    <tlLogic id="GS_1052165761" offset="0" programID="0" type="static">
        <phase duration="38" state="GGG" />
        <phase duration="7" state="yyy" />
        <phase duration="38" state="GGG" />
        <phase duration="7" state="yyy" />
    </tlLogic>
    <tlLogic id="GS_1052166069" offset="0" programID="0" type="static">
        <phase duration="36" state="GGGG" />
        <phase duration="9" state="yyyy" />
        <phase duration="36" state="GGGG" />
        <phase duration="9" state="yyyy" />
    </tlLogic>
    <tlLogic id="GS_1052166282" offset="0" programID="0" type="static">
        <phase duration="36" state="GGGG" />
        <phase duration="9" state="yyyy" />
        <phase duration="36" state="GGGG" />
        <phase duration="9" state="yyyy" />
    </tlLogic>
    <tlLogic id="GS_1061695272" offset="0" programID="0" type="static">
        <phase duration="38" state="GGG" />
        <phase duration="7" state="yyy" />
        <phase duration="38" state="GGG" />
        <phase duration="7" state="yyy" />
    </tlLogic>
    <tlLogic id="GS_1061695290" offset="0" programID="0" type="static">
        <phase duration="38" state="GGG" />
        <phase duration="7" state="yyy" />
        <phase duration="38" state="GGG" />
        <phase duration="7" state="yyy" />
    </tlLogic>
    <tlLogic id="GS_1066742878" offset="0" programID="0" type="static">
        <phase duration="38" state="GGG" />
        <phase duration="7" state="yyy" />
        <phase duration="38" state="GGG" />
        <phase duration="7" state="yyy" />
    </tlLogic>
    <tlLogic id="GS_1066742913" offset="0" programID="0" type="static">
        <phase duration="38" state="GGG" />
        <phase duration="7" state="yyy" />
        <phase duration="38" state="GGG" />
        <phase duration="7" state="yyy" />
    </tlLogic>
    <tlLogic id="GS_1067889614" offset="0" programID="0" type="static">
        <phase duration="38" state="GGG" />
        <phase duration="7" state="yyy" />
        <phase duration="38" state="GGG" />
        <phase duration="7" state="yyy" />
    </tlLogic>
    <tlLogic id="GS_1163010482" offset="0" programID="0" type="static">
        <phase duration="38" state="GGG" />
        <phase duration="7" state="yyy" />
        <phase duration="38" state="GGG" />
        <phase duration="7" state="yyy" />
    </tlLogic>
    <tlLogic id="GS_1166168346" offset="0" programID="0" type="static">
        <phase duration="38" state="GGG" />
        <phase duration="7" state="yyy" />
        <phase duration="38" state="GGG" />
        <phase duration="7" state="yyy" />
    </tlLogic>
    <tlLogic id="GS_1166168462" offset="0" programID="0" type="static">
        <phase duration="38" state="GGG" />
        <phase duration="7" state="yyy" />
        <phase duration="38" state="GGG" />
        <phase duration="7" state="yyy" />
    </tlLogic>
    <tlLogic id="GS_1166168470" offset="0" programID="0" type="static">
        <phase duration="38" state="GGG" />
        <phase duration="7" state="yyy" />
        <phase duration="38" state="GGG" />
        <phase duration="7" state="yyy" />
    </tlLogic>
    <tlLogic id="GS_1166168480" offset="0" programID="0" type="static">
        <phase duration="38" state="GGGG" />
        <phase duration="7" state="yyyy" />
        <phase duration="38" state="GGGG" />
        <phase duration="7" state="yyyy" />
    </tlLogic>
    <tlLogic id="GS_1320235679" offset="0" programID="0" type="static">
        <phase duration="36" state="GGG" />
        <phase duration="9" state="yyy" />
        <phase duration="36" state="GGG" />
        <phase duration="9" state="yyy" />
    </tlLogic>
    <tlLogic id="GS_1320235695" offset="0" programID="0" type="static">
        <phase duration="38" state="GGG" />
        <phase duration="7" state="yyy" />
        <phase duration="38" state="GGG" />
        <phase duration="7" state="yyy" />
    </tlLogic>
    <tlLogic id="GS_1320235955" offset="0" programID="0" type="static">
        <phase duration="36" state="GGG" />
        <phase duration="9" state="yyy" />
        <phase duration="36" state="GGG" />
        <phase duration="9" state="yyy" />
    </tlLogic>
    <tlLogic id="GS_1320236316" offset="0" programID="0" type="static">
        <phase duration="38" state="GGGG" />
        <phase duration="7" state="yyyy" />
        <phase duration="38" state="GGGG" />
        <phase duration="7" state="yyyy" />
    </tlLogic>
    <tlLogic id="GS_1330374746" offset="0" programID="0" type="static">
        <phase duration="38" state="GG" />
        <phase duration="7" state="yy" />
        <phase duration="38" state="GG" />
        <phase duration="7" state="yy" />
    </tlLogic>
    <tlLogic id="GS_1392464731" offset="0" programID="0" type="static">
        <phase duration="36" state="GGG" />
        <phase duration="9" state="yyy" />
        <phase duration="36" state="GGG" />
        <phase duration="9" state="yyy" />
    </tlLogic>
    <tlLogic id="GS_1392464735" offset="0" programID="0" type="static">
        <phase duration="38" state="GGG" />
        <phase duration="7" state="yyy" />
        <phase duration="38" state="GGG" />
        <phase duration="7" state="yyy" />
    </tlLogic>
    <tlLogic id="GS_1540504473" offset="0" programID="0" type="static">
        <phase duration="76" state="GgGg" />
        <phase duration="4" state="ygyg" />
        <phase duration="6" state="rGrG" />
        <phase duration="4" state="ryry" />
    </tlLogic>
    <tlLogic id="GS_1655530424" offset="0" programID="0" type="static">
        <phase duration="36" state="GGG" />
        <phase duration="9" state="yyy" />
        <phase duration="36" state="GGG" />
        <phase duration="9" state="yyy" />
    </tlLogic>
    <tlLogic id="GS_1655530430" offset="0" programID="0" type="static">
        <phase duration="38" state="GGG" />
        <phase duration="7" state="yyy" />
        <phase duration="38" state="GGG" />
        <phase duration="7" state="yyy" />
    </tlLogic>
    <tlLogic id="GS_1655530447" offset="0" programID="0" type="static">
        <phase duration="38" state="GGG" />
        <phase duration="7" state="yyy" />
        <phase duration="38" state="GGG" />
        <phase duration="7" state="yyy" />
    </tlLogic>
    <tlLogic id="GS_1655530451" offset="0" programID="0" type="static">
        <phase duration="36" state="GGG" />
        <phase duration="9" state="yyy" />
        <phase duration="36" state="GGG" />
        <phase duration="9" state="yyy" />
    </tlLogic>
    <tlLogic id="GS_1716342317" offset="0" programID="0" type="static">
        <phase duration="38" state="Gr" />
        <phase duration="7" state="yr" />
        <phase duration="38" state="rG" />
        <phase duration="7" state="ry" />
    </tlLogic>
    <tlLogic id="GS_1823291283" offset="0" programID="0" type="static">
        <phase duration="35" state="rrrGGgGgg" />
        <phase duration="5" state="rrryygygg" />
        <phase duration="6" state="rrrrrGrGG" />
        <phase duration="5" state="rrrrryryy" />
        <phase duration="34" state="GGgGrrrrr" />
        <phase duration="5" state="yyyyrrrrr" />
    </tlLogic>
    <tlLogic id="GS_1848144284" offset="0" programID="0" type="static">
        <phase duration="36" state="GGG" />
        <phase duration="9" state="yyy" />
        <phase duration="36" state="GGG" />
        <phase duration="9" state="yyy" />
    </tlLogic>
    <tlLogic id="GS_1848144296" offset="0" programID="0" type="static">
        <phase duration="38" state="GGG" />
        <phase duration="7" state="yyy" />
        <phase duration="38" state="GGG" />
        <phase duration="7" state="yyy" />
    </tlLogic>
    <tlLogic id="GS_1875944290" offset="0" programID="0" type="static">
        <phase duration="38" state="GGG" />
        <phase duration="7" state="yyy" />
        <phase duration="38" state="GGG" />
        <phase duration="7" state="yyy" />
    </tlLogic>
    <tlLogic id="GS_1875944295" offset="0" programID="0" type="static">
        <phase duration="38" state="GGG" />
        <phase duration="7" state="yyy" />
        <phase duration="38" state="GGG" />
        <phase duration="7" state="yyy" />
    </tlLogic>
    <tlLogic id="GS_1875944302" offset="0" programID="0" type="static">
        <phase duration="38" state="GGG" />
        <phase duration="7" state="yyy" />
        <phase duration="38" state="GGG" />
        <phase duration="7" state="yyy" />
    </tlLogic>
    <tlLogic id="GS_1875944305" offset="0" programID="0" type="static">
        <phase duration="38" state="GGG" />
        <phase duration="7" state="yyy" />
        <phase duration="38" state="GGG" />
        <phase duration="7" state="yyy" />
    </tlLogic>
    <tlLogic id="GS_1878834873" offset="0" programID="0" type="static">
        <phase duration="38" state="GGG" />
        <phase duration="7" state="yyy" />
        <phase duration="38" state="GGG" />
        <phase duration="7" state="yyy" />
    </tlLogic>
    <tlLogic id="GS_1882098676" offset="0" programID="0" type="static">
        <phase duration="38" state="GGGG" />
        <phase duration="7" state="yyyy" />
        <phase duration="38" state="GGGG" />
        <phase duration="7" state="yyyy" />
    </tlLogic>
    <tlLogic id="GS_2111285361" offset="0" programID="0" type="static">
        <phase duration="38" state="GG" />
        <phase duration="7" state="yy" />
        <phase duration="38" state="GG" />
        <phase duration="7" state="yy" />
    </tlLogic>
    <tlLogic id="GS_2111285363" offset="0" programID="0" type="static">
        <phase duration="38" state="GGG" />
        <phase duration="7" state="yyy" />
        <phase duration="38" state="GGG" />
        <phase duration="7" state="yyy" />
    </tlLogic>
    <tlLogic id="GS_2111285370" offset="0" programID="0" type="static">
        <phase duration="38" state="GG" />
        <phase duration="7" state="yy" />
        <phase duration="38" state="GG" />
        <phase duration="7" state="yy" />
    </tlLogic>
    <tlLogic id="GS_2111285382" offset="0" programID="0" type="static">
        <phase duration="38" state="GGG" />
        <phase duration="7" state="yyy" />
        <phase duration="38" state="GGG" />
        <phase duration="7" state="yyy" />
    </tlLogic>
    <tlLogic id="GS_2325763446" offset="0" programID="0" type="static">
        <phase duration="38" state="GGG" />
        <phase duration="7" state="yyy" />
        <phase duration="38" state="GGG" />
        <phase duration="7" state="yyy" />
    </tlLogic>
    <tlLogic id="GS_2325763558" offset="0" programID="0" type="static">
        <phase duration="38" state="GGG" />
        <phase duration="7" state="yyy" />
        <phase duration="38" state="GGG" />
        <phase duration="7" state="yyy" />
    </tlLogic>
    <tlLogic id="GS_2345202273" offset="0" programID="0" type="static">
        <phase duration="41" state="Gr" />
        <phase duration="4" state="yr" />
        <phase duration="41" state="rG" />
        <phase duration="4" state="ry" />
    </tlLogic>
    <tlLogic id="GS_261663225" offset="0" programID="0" type="static">
        <phase duration="40" state="GgGrrr" />
        <phase duration="5" state="yyyrrr" />
        <phase duration="40" state="rrGGGG" />
        <phase duration="5" state="rryyyy" />
    </tlLogic>
    <tlLogic id="GS_261668705" offset="0" programID="0" type="static">
        <phase duration="38" state="GGG" />
        <phase duration="7" state="yyy" />
        <phase duration="38" state="GGG" />
        <phase duration="7" state="yyy" />
    </tlLogic>
    <tlLogic id="GS_261673031" offset="0" programID="0" type="static">
        <phase duration="40" state="GGrr" />
        <phase duration="5" state="yyrr" />
        <phase duration="40" state="rrGG" />
        <phase duration="5" state="rryy" />
    </tlLogic>
    <tlLogic id="GS_261673689" offset="0" programID="0" type="static">
        <phase duration="40" state="Grr" />
        <phase duration="5" state="yrr" />
        <phase duration="40" state="rGG" />
        <phase duration="5" state="ryy" />
    </tlLogic>
    <tlLogic id="GS_262111016" offset="0" programID="0" type="static">
        <phase duration="38" state="GGG" />
        <phase duration="7" state="yyy" />
        <phase duration="38" state="GGG" />
        <phase duration="7" state="yyy" />
    </tlLogic>
    <tlLogic id="GS_262632351" offset="0" programID="0" type="static">
        <phase duration="38" state="Gr" />
        <phase duration="7" state="yr" />
        <phase duration="38" state="rG" />
        <phase duration="7" state="ry" />
    </tlLogic>
    <tlLogic id="GS_263008668" offset="0" programID="0" type="static">
        <phase duration="38" state="GgGr" />
        <phase duration="7" state="yyyr" />
        <phase duration="38" state="rrGG" />
        <phase duration="7" state="rryy" />
    </tlLogic>
    <tlLogic id="GS_263016061" offset="0" programID="0" type="static">
        <phase duration="36" state="GGGG" />
        <phase duration="9" state="yyyy" />
        <phase duration="36" state="GGGG" />
        <phase duration="9" state="yyyy" />
    </tlLogic>
    <tlLogic id="GS_263016064" offset="0" programID="0" type="static">
        <phase duration="36" state="GGGG" />
        <phase duration="9" state="yyyy" />
        <phase duration="36" state="GGGG" />
        <phase duration="9" state="yyyy" />
    </tlLogic>
    <tlLogic id="GS_263016113" offset="0" programID="0" type="static">
        <phase duration="38" state="GGG" />
        <phase duration="7" state="yyy" />
        <phase duration="38" state="GGG" />
        <phase duration="7" state="yyy" />
    </tlLogic>
    <tlLogic id="GS_263016116" offset="0" programID="0" type="static">
        <phase duration="36" state="GGG" />
        <phase duration="9" state="yyy" />
        <phase duration="36" state="GGG" />
        <phase duration="9" state="yyy" />
    </tlLogic>
    <tlLogic id="GS_263017703" offset="0" programID="0" type="static">
        <phase duration="36" state="GGGG" />
        <phase duration="9" state="yyyy" />
        <phase duration="36" state="GGGG" />
        <phase duration="9" state="yyyy" />
    </tlLogic>
    <tlLogic id="GS_263017713" offset="0" programID="0" type="static">
        <phase duration="36" state="GGGG" />
        <phase duration="9" state="yyyy" />
        <phase duration="36" state="GGGG" />
        <phase duration="9" state="yyyy" />
    </tlLogic>
    <tlLogic id="GS_263017723" offset="0" programID="0" type="static">
        <phase duration="36" state="GGG" />
        <phase duration="9" state="yyy" />
        <phase duration="36" state="GGG" />
        <phase duration="9" state="yyy" />
    </tlLogic>
    <tlLogic id="GS_263017731" offset="0" programID="0" type="static">
        <phase duration="38" state="GGG" />
        <phase duration="7" state="yyy" />
        <phase duration="38" state="GGG" />
        <phase duration="7" state="yyy" />
    </tlLogic>
    <tlLogic id="GS_2712122650" offset="0" programID="0" type="static">
        <phase duration="36" state="GGG" />
        <phase duration="9" state="yyy" />
        <phase duration="36" state="GGG" />
        <phase duration="9" state="yyy" />
    </tlLogic>
    <tlLogic id="GS_2712122652" offset="0" programID="0" type="static">
        <phase duration="38" state="GGG" />
        <phase duration="7" state="yyy" />
        <phase duration="38" state="GGG" />
        <phase duration="7" state="yyy" />
    </tlLogic>
    <tlLogic id="GS_2712122662" offset="0" programID="0" type="static">
        <phase duration="36" state="GGG" />
        <phase duration="9" state="yyy" />
        <phase duration="36" state="GGG" />
        <phase duration="9" state="yyy" />
    </tlLogic>
    <tlLogic id="GS_2712122668" offset="0" programID="0" type="static">
        <phase duration="38" state="GGG" />
        <phase duration="7" state="yyy" />
        <phase duration="38" state="GGG" />
        <phase duration="7" state="yyy" />
    </tlLogic>
    <tlLogic id="GS_2876214699" offset="0" programID="0" type="static">
        <phase duration="38" state="GGG" />
        <phase duration="7" state="yyy" />
        <phase duration="38" state="GGG" />
        <phase duration="7" state="yyy" />
    </tlLogic>
    <tlLogic id="GS_2876230707" offset="0" programID="0" type="static">
        <phase duration="38" state="GGG" />
        <phase duration="7" state="yyy" />
        <phase duration="38" state="GGG" />
        <phase duration="7" state="yyy" />
    </tlLogic>
    <tlLogic id="GS_2876230713" offset="0" programID="0" type="static">
        <phase duration="38" state="GGG" />
        <phase duration="7" state="yyy" />
        <phase duration="38" state="GGG" />
        <phase duration="7" state="yyy" />
    </tlLogic>
    <tlLogic id="GS_2876231529" offset="0" programID="0" type="static">
        <phase duration="38" state="GGG" />
        <phase duration="7" state="yyy" />
        <phase duration="38" state="GGG" />
        <phase duration="7" state="yyy" />
    </tlLogic>
    <tlLogic id="GS_299386499" offset="0" programID="0" type="static">
        <phase duration="40" state="GGGrr" />
        <phase duration="5" state="yyyrr" />
        <phase duration="40" state="GrrGg" />
        <phase duration="5" state="yrryy" />
    </tlLogic>
    <tlLogic id="GS_3010747660" offset="0" programID="0" type="static">
        <phase duration="40" state="GGGrr" />
        <phase duration="5" state="yyyrr" />
        <phase duration="40" state="rrrGG" />
        <phase duration="5" state="rrryy" />
    </tlLogic>
    <tlLogic id="GS_3089137485" offset="0" programID="0" type="static">
        <phase duration="36" state="Grr" />
        <phase duration="9" state="yrr" />
        <phase duration="36" state="rGG" />
        <phase duration="9" state="ryy" />
    </tlLogic>
    <tlLogic id="GS_3976263545" offset="0" programID="0" type="static">
        <phase duration="38" state="GGG" />
        <phase duration="7" state="yyy" />
        <phase duration="38" state="GGG" />
        <phase duration="7" state="yyy" />
    </tlLogic>
    <tlLogic id="GS_3976263547" offset="0" programID="0" type="static">
        <phase duration="38" state="GGG" />
        <phase duration="7" state="yyy" />
        <phase duration="38" state="GGG" />
        <phase duration="7" state="yyy" />
    </tlLogic>
    <tlLogic id="GS_3987551564" offset="0" programID="0" type="static">
        <phase duration="36" state="GGrrr" />
        <phase duration="9" state="yyrrr" />
        <phase duration="36" state="rrGGG" />
        <phase duration="9" state="rryyy" />
    </tlLogic>
    <tlLogic id="GS_4081514406" offset="0" programID="0" type="static">
        <phase duration="38" state="GGG" />
        <phase duration="7" state="yyy" />
        <phase duration="38" state="GGG" />
        <phase duration="7" state="yyy" />
    </tlLogic>
    <tlLogic id="GS_4081514408" offset="0" programID="0" type="static">
        <phase duration="36" state="GGG" />
        <phase duration="9" state="yyy" />
        <phase duration="36" state="GGG" />
        <phase duration="9" state="yyy" />
    </tlLogic>
    <tlLogic id="GS_799283737" offset="0" programID="0" type="static">
        <phase duration="38" state="GGGG" />
        <phase duration="7" state="yyyy" />
        <phase duration="38" state="GGGG" />
        <phase duration="7" state="yyyy" />
    </tlLogic>
    <tlLogic id="GS_799284060" offset="0" programID="0" type="static">
        <phase duration="38" state="GGG" />
        <phase duration="7" state="yyy" />
        <phase duration="38" state="GGG" />
        <phase duration="7" state="yyy" />
    </tlLogic>
    <tlLogic id="GS_838326916" offset="0" programID="0" type="static">
        <phase duration="38" state="GGGG" />
        <phase duration="7" state="yyyy" />
        <phase duration="38" state="GGGG" />
        <phase duration="7" state="yyyy" />
    </tlLogic>
    <tlLogic id="GS_cluster_1068313828_1068313837_4090161660_916385867" offset="0" programID="0" type="static">
        <phase duration="35" state="GGggrrrrGGGGg" />
        <phase duration="5" state="yyggrrrryyyyg" />
        <phase duration="6" state="rrGGrrrrrrrrG" />
        <phase duration="5" state="rryyrrrrrrrry" />
        <phase duration="34" state="rrrrGGGgGrrrr" />
        <phase duration="5" state="rrrryyyyyrrrr" />
    </tlLogic>
    <tlLogic id="GS_cluster_1877163957_289361155_3979022563_3979022564" offset="0" programID="0" type="static">
        <phase duration="29" state="GGGggrrrrrGGGggrrrrr" />
        <phase duration="5" state="yyyggrrrrryyyggrrrrr" />
        <phase duration="6" state="rrrGGrrrrrrrrGGrrrrr" />
        <phase duration="5" state="rrryyrrrrrrrryyrrrrr" />
        <phase duration="29" state="rrrrrGGGggrrrrrGGGgg" />
        <phase duration="5" state="rrrrryyyggrrrrryyygg" />
        <phase duration="6" state="rrrrrrrrGGrrrrrrrrGG" />
        <phase duration="5" state="rrrrrrrryyrrrrrrrryy" />
    </tlLogic>
    <tlLogic id="GS_cluster_292185815_292185816_694351668_694351669" offset="0" programID="0" type="static">
        <phase duration="29" state="rrrrrGGGggrrrrrGGGgg" />
        <phase duration="5" state="rrrrryyyggrrrrryyygg" />
        <phase duration="6" state="rrrrrrrrGGrrrrrrrrGG" />
        <phase duration="5" state="rrrrrrrryyrrrrrrrryy" />
        <phase duration="29" state="GGGggrrrrrGGGggrrrrr" />
        <phase duration="5" state="yyyggrrrrryyyggrrrrr" />
        <phase duration="6" state="rrrGGrrrrrrrrGGrrrrr" />
        <phase duration="5" state="rrryyrrrrrrrryyrrrrr" />
    </tlLogic>
    <tlLogic id="cluster_1052166261_261671786_261671787_261671860_261671861" offset="0" programID="0" type="static">
        <phase duration="29" state="GGGGggrrrrrrGGGgggrrrrrr" />
        <phase duration="5" state="yyyyggrrrrrryyygggrrrrrr" />
        <phase duration="6" state="rrrrGGrrrrrrrrrGGGrrrrrr" />
        <phase duration="5" state="rrrryyrrrrrrrrryyyrrrrrr" />
        <phase duration="29" state="rrrrrrGGGGggrrrrrrGGGggg" />
        <phase duration="5" state="rrrrrryyyyggrrrrrryyyggg" />
        <phase duration="6" state="rrrrrrrrrrGGrrrrrrrrrGGG" />
        <phase duration="5" state="rrrrrrrrrryyrrrrrrrrryyy" />
    </tlLogic>
    <tlLogic id="cluster_1473528792_1473528795" offset="0" programID="0" type="static">
        <phase duration="35" state="rrrrrrGGGgGGGGg" />
        <phase duration="5" state="rrrrrryyygyyyyg" />
        <phase duration="6" state="rrrrrrrrrGrrrrG" />
        <phase duration="5" state="rrrrrrrrryrrrry" />
        <phase duration="34" state="GGGGGGrrrrrrrrr" />
        <phase duration="5" state="yyyyyyrrrrrrrrr" />
    </tlLogic>
    <tlLogic id="cluster_1636594545_261671527" offset="0" programID="0" type="static">
        <phase duration="28" state="GGggGGgrrr" />
        <phase duration="9" state="yyggyygrrr" />
        <phase duration="6" state="rrGGrrGrrr" />
        <phase duration="9" state="rryyrryrrr" />
        <phase duration="29" state="rrrrrrGGGG" />
        <phase duration="9" state="rrrrrryyyy" />
    </tlLogic>
    <tlLogic id="cluster_1636594547_261671526" offset="0" programID="0" type="static">