<?xml version='1.0' encoding='UTF-8'?>
<nodes xmlns:xsi="http://www.w3.org/2001/XMLSchema-instance" version="0.27" xsi:noNamespaceSchemaLocation="http://sumo.dlr.de/xsd/nodes_file.xsd">
    <location convBoundary="2208.92,522.44,21219.92,15402.46" netOffset="-224973.31,-2700122.99" origBoundary="54.286966,24.391306,54.609531,24.591038" projParameter="+proj=utm +zone=40 +ellps=WGS84 +datum=WGS84 +units=m +no_defs" />

    <node id="node_0" type="priority" x="54422.0" y="-29668.0" />
    <node id="node_1" type="priority" x="24611.0" y="28226.0" />
    <node id="node_2" type="priority" x="22129.0" y="48581.0" />
    <node id="node_3" tl="GS_1003388266" type="traffic_light" x="-12080.0" y="-21557.0" />
    <node id="node_4" type="priority" x="318.13" y="-4552.6" />
    <node id="node_5" type="priority" x="-12323.0" y="-21888.0" />
    <node id="node_6" tl="GS_1003388319" type="traffic_light" x="588.88" y="-4755.8" />
    <node id="node_7" type="priority" x="-10258.0" y="16981.0" />
    <node id="node_8" type="priority" x="-26735.0" y="67525.0" />
    <node id="node_9" type="priority" x="17718.0" y="18684.0" />
    <node id="node_10" type="priority" x="-53582.0" y="12259.0" />
    <node id="node_11" type="priority" x="-53455.0" y="12118.0" />
    <node id="node_12" type="priority" x="-67338.0" y="10521.0" />
    <node id="node_13" type="priority" x="-58381.0" y="8593.6" />
    <node id="node_14" type="unregulated" x="-62562.0" y="10310.0" />
    <node id="node_15" type="unregulated" x="-61944.0" y="10528.0" />
    <node id="node_16" type="priority" x="-64213.0" y="10856.0" />
    <node id="node_17" type="priority" x="62122.0" y="-34959.0" />
    <node id="node_18" type="priority" x="61971.0" y="-34942.0" />
    <node id="node_19" type="priority" x="10751.0" y="39688.0" />
    <node id="node_20" type="priority" x="9633.3" y="40260.0" />
    <node id="node_21" type="priority" x="9344.1" y="40265.0" />
    <node id="node_22" type="priority" x="-14303.0" y="16594.0" />
    <node id="node_23" type="priority" x="10644.0" y="40343.0" />
    <node id="node_24" type="priority" x="-14204.0" y="16368.0" />
    <node id="node_25" type="priority" x="-21220.0" y="14551.0" />
    <node id="node_26" type="priority" x="-30870.0" y="13837.0" />
    <node id="node_27" type="priority" x="-51529.0" y="11792.0" />
    <node id="node_28" type="priority" x="-33469.0" y="12112.0" />
    <node id="node_29" type="priority" x="-23188.0" y="16438.0" />
    <node id="node_30" type="priority" x="-21312.0" y="14168.0" />
    <node id="node_31" type="priority" x="-30381.0" y="13389.0" />
    <node id="node_32" type="priority" x="-23357.0" y="16677.0" />
    <node id="node_33" type="priority" x="-32205.0" y="16304.0" />
    <node id="node_34" type="priority" x="-23446.0" y="16491.0" />
    <node id="node_35" type="priority" x="-30426.0" y="13807.0" />
    <node id="node_36" type="priority" x="-12213.0" y="18692.0" />
    <node id="node_37" type="priority" x="-9081.0" y="16015.0" />
    <node id="node_38" type="priority" x="-12091.0" y="17302.0" />
    <node id="node_39" type="priority" x="-16117.0" y="15162.0" />
    <node id="node_40" type="priority" x="-10661.0" y="16253.0" />
    <node id="node_41" type="priority" x="-10493.0" y="14469.0" />
    <node id="node_42" type="priority" x="-11584.0" y="17294.0" />
    <node id="node_43" type="priority" x="-10995.0" y="17066.0" />
    <node id="node_44" type="priority" x="-12768.0" y="16629.0" />
    <node id="node_45" type="priority" x="-11617.0" y="18388.0" />
    <node id="node_46" type="priority" x="-17991.0" y="14959.0" />
    <node id="node_47" type="priority" x="-22270.0" y="23714.0" />
    <node id="node_48" type="priority" x="-18068.0" y="14964.0" />
    <node id="node_49" type="priority" x="-16683.0" y="14507.0" />
    <node id="node_50" type="priority" x="-18179.0" y="15216.0" />
    <node id="node_51" type="priority" x="-18225.0" y="15250.0" />
    <node id="node_52" type="priority" x="-18800.0" y="16944.0" />
    <node id="node_53" type="priority" x="-19546.0" y="12519.0" />
    <node id="node_54" type="priority" x="-20792.0" y="27112.0" />
    <node id="node_55" type="priority" x="-20635.0" y="26726.0" />
    <node id="node_56" type="priority" x="13529.0" y="5357.6" />
    <node id="node_57" type="priority" x="-45863.0" y="-13530.0" />
    <node id="node_58" type="priority" x="-76206.0" y="-28213.0" />
    <node id="node_59" type="priority" x="-54278.0" y="-19833.0" />
    <node id="node_60" type="priority" x="-82565.0" y="-23441.0" />
    <node id="node_61" type="priority" x="-45217.0" y="-13730.0" />
    <node id="node_62" type="priority" x="-45221.0" y="-14052.0" />
    <node id="node_63" type="priority" x="-50473.0" y="-18382.0" />
    <node id="node_64" type="priority" x="-46062.0" y="-13905.0" />
    <node id="node_65" type="priority" x="-54158.0" y="-20005.0" />
    <node id="node_66" type="priority" x="-76188.0" y="-27992.0" />
    <node id="node_67" type="priority" x="-55168.0" y="-20162.0" />
    <node id="node_68" type="priority" x="-47191.0" y="-25034.0" />
    <node id="node_69" type="priority" x="-73733.0" y="-27316.0" />
    <node id="node_70" type="priority" x="-58639.0" y="-32264.0" />
    <node id="node_71" type="priority" x="-54494.0" y="-31041.0" />
    <node id="node_72" type="priority" x="-38041.0" y="-16902.0" />
    <node id="node_73" type="priority" x="-55553.0" y="-29219.0" />
    <node id="node_74" type="priority" x="-41175.0" y="-17695.0" />
    <node id="node_75" type="priority" x="-42018.0" y="-18396.0" />
    <node id="node_76" type="unregulated" x="-30432.0" y="-21720.0" />
    <node id="node_77" type="priority" x="-53456.0" y="-28428.0" />
    <node id="node_78" type="priority" x="-52295.0" y="-26474.0" />
    <node id="node_79" type="priority" x="-55194.0" y="-28273.0" />
    <node id="node_80" type="unregulated" x="-30146.0" y="-21418.0" />
    <node id="node_81" type="priority" x="-53815.0" y="-28221.0" />
    <node id="node_82" type="priority" x="-55901.0" y="-28851.0" />
    <node id="node_83" type="priority" x="-54847.0" y="-28608.0" />
    <node id="node_84" type="priority" x="-54136.0" y="-28257.0" />
    <node id="node_85" type="priority" x="-47804.0" y="-15003.0" />
    <node id="node_86" type="priority" x="-46006.0" y="-13772.0" />
    <node id="node_87" type="priority" x="-46404.0" y="-14340.0" />
    <node id="node_88" type="priority" x="-59217.0" y="-33630.0" />
    <node id="node_89" type="priority" x="-59051.0" y="-32070.0" />
    <node id="node_90" type="priority" x="-58715.0" y="-32642.0" />
    <node id="node_91" type="priority" x="-60501.0" y="-32195.0" />
    <node id="node_92" type="priority" x="-60600.0" y="-33482.0" />
    <node id="node_93" type="priority" x="-42437.0" y="-18563.0" />
    <node id="node_94" type="priority" x="-35302.0" y="-51392.0" />
    <node id="node_95" type="priority" x="-42345.0" y="-62175.0" />
    <node id="node_96" type="priority" x="-40133.0" y="-59602.0" />
    <node id="node_97" type="priority" x="-25234.0" y="-27386.0" />
    <node id="node_98" type="priority" x="-21244.0" y="-26792.0" />
    <node id="node_99" type="priority" x="-33057.0" y="-47151.0" />
    <node id="node_100" type="priority" x="-38627.0" y="-61187.0" />
    <node id="node_101" type="priority" x="-26938.0" y="-22338.0" />
    <node id="node_102" type="priority" x="-21633.0" y="-26876.0" />
    <node id="node_103" type="priority" x="-22274.0" y="-28013.0" />
    <node id="node_104" type="priority" x="-22548.0" y="-27914.0" />
    <node id="node_105" type="priority" x="-43427.0" y="-61480.0" />
    <node id="node_106" type="priority" x="-42537.0" y="-62060.0" />
    <node id="node_107" type="priority" x="-22261.0" y="-28153.0" />
    <node id="node_108" type="priority" x="-21874.0" y="-27467.0" />
    <node id="node_109" type="priority" x="-26424.0" y="-23739.0" />
    <node id="node_110" type="priority" x="-22909.0" y="-29170.0" />
    <node id="node_111" type="priority" x="-19036.0" y="-27027.0" />
    <node id="node_112" type="priority" x="-40640.0" y="-59431.0" />
    <node id="node_113" type="priority" x="-27038.0" y="-22785.0" />
    <node id="node_114" type="priority" x="-39256.0" y="-59140.0" />
    <node id="node_115" type="priority" x="-41087.0" y="-59893.0" />
    <node id="node_116" type="priority" x="-43915.0" y="-64065.0" />
    <node id="node_117" type="priority" x="-19097.0" y="-26715.0" />
    <node id="node_118" type="priority" x="-40447.0" y="-59535.0" />
    <node id="node_119" type="priority" x="-26965.0" y="-23416.0" />
    <node id="node_120" type="priority" x="-25412.0" y="-27344.0" />
    <node id="node_121" type="priority" x="-40391.0" y="-60951.0" />
    <node id="node_122" type="priority" x="-38763.0" y="-59712.0" />
    <node id="node_123" type="priority" x="-38674.0" y="-60385.0" />
    <node id="node_124" type="priority" x="-23293.0" y="-29859.0" />
    <node id="node_125" type="priority" x="-26422.0" y="-23423.0" />
    <node id="node_126" type="priority" x="-26706.0" y="-23021.0" />
    <node id="node_127" type="priority" x="-41783.0" y="-65854.0" />
    <node id="node_128" type="priority" x="-30739.0" y="-28846.0" />
    <node id="node_129" type="priority" x="-28235.0" y="-28939.0" />
    <node id="node_130" type="priority" x="-28664.0" y="-29694.0" />
    <node id="node_131" type="priority" x="-28930.0" y="-28888.0" />
    <node id="node_132" type="priority" x="-38628.0" y="-7309.9" />
    <node id="node_133" tl="GS_1052165761" type="traffic_light" x="-9339.6" y="-17470.0" />
    <node id="node_134" type="priority" x="-55205.0" y="-890.97" />
    <node id="node_135" type="priority" x="-75833.0" y="-120450.0" />
    <node id="node_136" type="priority" x="-13799.0" y="-21544.0" />
    <node id="node_137" type="priority" x="-14087.0" y="-21377.0" />
    <node id="node_138" type="priority" x="-25216.0" y="-9543.4" />
    <node id="node_139" type="priority" x="-45577.0" y="4313.5" />
    <node id="node_140" type="priority" x="-53625.0" y="-32472.0" />
    <node id="node_141" type="priority" x="-46234.0" y="2076.5" />
    <node id="node_142" type="priority" x="-36426.0" y="3933.4" />
    <node id="node_143" type="priority" x="-39445.0" y="-20910.0" />
    <node id="node_144" type="priority" x="-15424.0" y="-21822.0" />
    <node id="node_145" type="priority" x="-33214.0" y="-15212.0" />
    <node id="node_146" type="priority" x="-48463.0" y="-1772.5" />
    <node id="node_147" type="priority" x="-38246.0" y="-6583.2" />
    <node id="node_148" type="priority" x="-15997.0" y="-31357.0" />
    <node id="node_149" type="priority" x="-6868.8" y="-22945.0" />
    <node id="node_150" type="priority" x="-59867.0" y="-15728.0" />
    <node id="node_151" type="priority" x="-14061.0" y="-22462.0" />
    <node id="node_152" type="priority" x="-6974.6" y="-22461.0" />
    <node id="node_153" type="priority" x="-47138.0" y="-22580.0" />
    <node id="node_154" type="priority" x="-76063.0" y="-121320.0" />
    <node id="node_155" type="priority" x="-14341.0" y="-21173.0" />
    <node id="node_156" type="priority" x="-14093.0" y="-20715.0" />
    <node id="node_157" type="priority" x="-43243.0" y="-29797.0" />
    <node id="node_158" type="priority" x="-15199.0" y="-21673.0" />
    <node id="node_159" type="priority" x="-47350.0" y="-12330.0" />
    <node id="node_160" type="priority" x="-58172.0" y="-98708.0" />
    <node id="node_161" type="priority" x="-12947.0" y="-17656.0" />
    <node id="node_162" type="priority" x="-53297.0" y="-915.37" />
    <node id="node_163" type="priority" x="-34800.0" y="-18051.0" />
    <node id="node_164" type="priority" x="-48244.0" y="-1704.2" />
    <node id="node_165" type="priority" x="-47154.0" y="-357.12" />
    <node id="node_166" type="priority" x="-44441.0" y="3190.6" />
    <node id="node_167" type="priority" x="-9053.2" y="-17197.0" />
    <node id="node_168" type="priority" x="-46898.0" y="-329.06" />
    <node id="node_169" type="priority" x="-14594.0" y="-21465.0" />
    <node id="node_170" type="priority" x="-36571.0" y="4141.1" />
    <node id="node_171" tl="GS_1052166069" type="traffic_light" x="-13102.0" y="-17344.0" />
    <node id="node_172" type="priority" x="-77397.0" y="-121430.0" />
    <node id="node_173" type="priority" x="-46072.0" y="1891.5" />
    <node id="node_174" type="priority" x="-80535.0" y="-115910.0" />
    <node id="node_175" type="priority" x="-46607.0" y="-22656.0" />
    <node id="node_176" type="priority" x="-48979.0" y="-13007.0" />
    <node id="node_177" type="priority" x="-46538.0" y="4419.4" />
    <node id="node_178" type="priority" x="-25356.0" y="-9365.4" />
    <node id="node_179" type="priority" x="-76207.0" y="-121050.0" />
    <node id="node_180" type="priority" x="-38042.0" y="-6562.7" />
    <node id="node_181" type="priority" x="-14308.0" y="-22112.0" />
    <node id="node_182" type="priority" x="-15125.0" y="-19442.0" />
    <node id="node_183" type="priority" x="-14417.0" y="-21802.0" />
    <node id="node_184" type="priority" x="-38208.0" y="-7298.3" />
    <node id="node_185" type="priority" x="-77129.0" y="-121320.0" />
    <node id="node_186" tl="GS_1052166282" type="traffic_light" x="-16278.0" y="-20107.0" />
    <node id="node_187" type="priority" x="-25039.0" y="27726.0" />
    <node id="node_188" type="priority" x="-23669.0" y="22532.0" />
    <node id="node_189" type="priority" x="-25534.0" y="30270.0" />
    <node id="node_190" type="priority" x="-16624.0" y="22038.0" />
    <node id="node_191" type="priority" x="-30212.0" y="50605.0" />
    <node id="node_192" type="priority" x="-23320.0" y="37016.0" />
    <node id="node_193" type="priority" x="-28820.0" y="49349.0" />
    <node id="node_194" type="priority" x="-24246.0" y="28638.0" />
    <node id="node_195" type="priority" x="-27555.0" y="32790.0" />
    <node id="node_196" type="priority" x="-16878.0" y="21749.0" />
    <node id="node_197" type="priority" x="-17497.0" y="19272.0" />
    <node id="node_198" type="priority" x="-24950.0" y="29785.0" />
    <node id="node_199" type="priority" x="-18326.0" y="25299.0" />
    <node id="node_200" type="priority" x="-20782.0" y="24813.0" />
    <node id="node_201" type="priority" x="-17622.0" y="19086.0" />
    <node id="node_202" type="priority" x="-33792.0" y="42189.0" />
    <node id="node_203" type="priority" x="-17100.0" y="15973.0" />
    <node id="node_204" type="priority" x="-33614.0" y="42481.0" />
    <node id="node_205" type="priority" x="-17055.0" y="15899.0" />
    <node id="node_206" type="priority" x="-17522.0" y="20086.0" />
    <node id="node_207" type="priority" x="-31298.0" y="40625.0" />
    <node id="node_208" type="priority" x="-39341.0" y="63433.0" />
    <node id="node_209" type="priority" x="-18000.0" y="24345.0" />
    <node id="node_210" type="priority" x="-24720.0" y="30450.0" />
    <node id="node_211" type="priority" x="-17682.0" y="19663.0" />
    <node id="node_212" type="priority" x="-17612.0" y="16293.0" />
    <node id="node_213" type="priority" x="-18139.0" y="24862.0" />
    <node id="node_214" type="priority" x="-24692.0" y="29625.0" />
    <node id="node_215" type="priority" x="-25114.0" y="42073.0" />
    <node id="node_216" type="priority" x="-30865.0" y="37006.0" />
    <node id="node_217" type="priority" x="-17890.0" y="23689.0" />
    <node id="node_218" type="priority" x="-36347.0" y="64529.0" />
    <node id="node_219" type="priority" x="-19723.0" y="28914.0" />
    <node id="node_220" type="priority" x="-34144.0" y="57741.0" />
    <node id="node_221" type="priority" x="-24938.0" y="41756.0" />
    <node id="node_222" type="priority" x="-17641.0" y="22720.0" />
    <node id="node_223" type="priority" x="-20920.0" y="26555.0" />
    <node id="node_224" type="priority" x="-24537.0" y="29356.0" />
    <node id="node_225" type="priority" x="-24201.0" y="27783.0" />
    <node id="node_226" type="priority" x="-34624.0" y="61007.0" />
    <node id="node_227" type="priority" x="-25183.0" y="27744.0" />
    <node id="node_228" type="priority" x="-18263.0" y="23352.0" />
    <node id="node_229" tl="GS_1061695272" type="traffic_light" x="-16637.0" y="21659.0" />
    <node id="node_230" type="priority" x="-18540.0" y="21309.0" />
    <node id="node_231" tl="GS_1061695290" type="traffic_light" x="-16368.0" y="21828.0" />
    <node id="node_232" type="priority" x="-30840.0" y="36776.0" />
    <node id="node_233" type="priority" x="-27289.0" y="-32060.0" />
    <node id="node_234" type="priority" x="-4082.6" y="-13320.0" />
    <node id="node_235" type="priority" x="393.17" y="-34548.0" />
    <node id="node_236" type="priority" x="-11142.0" y="-68425.0" />
    <node id="node_237" type="priority" x="-4194.3" y="-13778.0" />
    <node id="node_238" type="priority" x="54.665" y="-33574.0" />
    <node id="node_239" type="priority" x="-8392.4" y="-26006.0" />
    <node id="node_240" type="priority" x="25.601" y="-32736.0" />
    <node id="node_241" type="priority" x="-27336.0" y="-32286.0" />
    <node id="node_242" type="priority" x="-22645.0" y="-26867.0" />
    <node id="node_243" type="priority" x="-56078.0" y="11918.0" />
    <node id="node_244" type="priority" x="-34635.0" y="2598.2" />
    <node id="node_245" type="priority" x="-57245.0" y="14831.0" />
    <node id="node_246" type="priority" x="-36243.0" y="2292.8" />
    <node id="node_247" type="priority" x="-94182.0" y="23369.0" />
    <node id="node_248" type="priority" x="-54810.0" y="12656.0" />
    <node id="node_249" type="priority" x="-34054.0" y="14590.0" />
    <node id="node_250" type="priority" x="-55665.0" y="14070.0" />
    <node id="node_251" type="priority" x="-94527.0" y="24135.0" />
    <node id="node_252" type="priority" x="-56872.0" y="14685.0" />
    <node id="node_253" type="priority" x="-36248.0" y="14296.0" />
    <node id="node_254" type="priority" x="-41344.0" y="6188.0" />
    <node id="node_255" type="priority" x="-34515.0" y="2981.1" />
    <node id="node_256" type="priority" x="-65484.0" y="15863.0" />
    <node id="node_257" type="priority" x="-36252.0" y="14582.0" />
    <node id="node_258" type="priority" x="-55782.0" y="13407.0" />
    <node id="node_259" type="priority" x="-94398.0" y="23163.0" />
    <node id="node_260" type="priority" x="-34208.0" y="16946.0" />
    <node id="node_261" type="priority" x="-41789.0" y="6215.7" />
    <node id="node_262" type="priority" x="-55421.0" y="12127.0" />
    <node id="node_263" type="priority" x="-56395.0" y="14506.0" />
    <node id="node_264" type="priority" x="-34963.0" y="2954.6" />
    <node id="node_265" type="priority" x="-34032.0" y="16825.0" />
    <node id="node_266" type="priority" x="-33835.0" y="14768.0" />
    <node id="node_267" type="priority" x="-85360.0" y="21088.0" />
    <node id="node_268" type="priority" x="-56070.0" y="13931.0" />
    <node id="node_269" type="priority" x="-40106.0" y="12900.0" />
    <node id="node_270" type="priority" x="-55770.0" y="11986.0" />
    <node id="node_271" type="priority" x="-51460.0" y="22403.0" />
    <node id="node_272" type="priority" x="-55277.0" y="13477.0" />
    <node id="node_273" type="priority" x="-36484.0" y="2377.4" />
    <node id="node_274" type="priority" x="-55843.0" y="14253.0" />
    <node id="node_275" type="priority" x="-37335.0" y="12918.0" />
    <node id="node_276" type="priority" x="-94653.0" y="23014.0" />
    <node id="node_277" type="priority" x="-56179.0" y="13291.0" />
    <node id="node_278" type="priority" x="-37529.0" y="13246.0" />
    <node id="node_279" type="priority" x="-18159.0" y="19147.0" />
    <node id="node_280" type="priority" x="-15545.0" y="17026.0" />
    <node id="node_281" type="priority" x="-15841.0" y="17939.0" />
    <node id="node_282" type="priority" x="-14953.0" y="17745.0" />
    <node id="node_283" type="priority" x="-20204.0" y="17104.0" />
    <node id="node_284" type="priority" x="-17085.0" y="19289.0" />
    <node id="node_285" type="priority" x="-16752.0" y="19186.0" />
    <node id="node_286" type="priority" x="-16045.0" y="19366.0" />
    <node id="node_287" type="priority" x="-15358.0" y="18342.0" />
    <node id="node_288" type="priority" x="-15467.0" y="18979.0" />
    <node id="node_289" type="priority" x="-17371.0" y="16686.0" />
    <node id="node_290" type="priority" x="-15618.0" y="19441.0" />
    <node id="node_291" type="priority" x="-15344.0" y="19336.0" />
    <node id="node_292" type="priority" x="-16227.0" y="21257.0" />
    <node id="node_293" tl="GS_1066742878" type="traffic_light" x="-15985.0" y="21346.0" />
    <node id="node_294" type="priority" x="-15678.0" y="19879.0" />
    <node id="node_295" tl="GS_1066742913" type="traffic_light" x="-15381.0" y="16078.0" />
    <node id="node_296" type="priority" x="-28216.0" y="13744.0" />
    <node id="node_297" type="priority" x="-26922.0" y="13486.0" />
    <node id="node_298" type="priority" x="-24460.0" y="14133.0" />
    <node id="node_299" type="priority" x="-27901.0" y="13474.0" />
    <node id="node_300" type="priority" x="-30825.0" y="15157.0" />
    <node id="node_301" type="priority" x="-24660.0" y="13872.0" />
    <node id="node_302" type="priority" x="-27269.0" y="15562.0" />
    <node id="node_303" type="priority" x="-27429.0" y="13457.0" />
    <node id="node_304" type="priority" x="-23047.0" y="16244.0" />
    <node id="node_305" type="priority" x="-23025.0" y="16791.0" />
    <node id="node_306" type="priority" x="-23608.0" y="18733.0" />
    <node id="node_307" type="priority" x="9036.1" y="41202.0" />
    <node id="node_308" type="priority" x="-12916.0" y="41433.0" />
    <node id="node_309" type="priority" x="7166.0" y="60298.0" />
    <node id="node_310" type="priority" x="5752.9" y="43417.0" />
    <node id="node_311" type="priority" x="8463.7" y="65708.0" />
    <node id="node_312" type="priority" x="-18226.0" y="50625.0" />
    <node id="node_313" type="priority" x="-12573.0" y="40582.0" />
    <node id="node_314" type="priority" x="7455.6" y="61836.0" />
    <node id="node_315" type="priority" x="-15288.0" y="48822.0" />
    <node id="node_316" type="priority" x="4819.7" y="45967.0" />
    <node id="node_317" type="priority" x="7159.1" y="43423.0" />
    <node id="node_318" type="priority" x="-16269.0" y="53809.0" />
    <node id="node_319" type="priority" x="9432.0" y="42771.0" />
    <node id="node_320" tl="GS_1067889614" type="traffic_light" x="8470.1" y="41123.0" />
    <node id="node_321" type="priority" x="8923.3" y="41042.0" />
    <node id="node_322" type="priority" x="-14350.0" y="45134.0" />
    <node id="node_323" type="priority" x="27007.0" y="94596.0" />
    <node id="node_324" type="priority" x="-7558.8" y="46614.0" />
    <node id="node_325" type="priority" x="8003.2" y="49183.0" />
    <node id="node_326" type="priority" x="6327.9" y="43176.0" />
    <node id="node_327" type="priority" x="6892.9" y="42961.0" />
    <node id="node_328" type="priority" x="-11986.0" y="41128.0" />
    <node id="node_329" type="priority" x="8463.7" y="41570.0" />
    <node id="node_330" type="priority" x="4912.5" y="44501.0" />
    <node id="node_331" type="priority" x="-8051.6" y="62840.0" />
    <node id="node_332" type="priority" x="4755.8" y="51246.0" />
    <node id="node_333" type="priority" x="-17422.0" y="57828.0" />
    <node id="node_334" type="priority" x="-11523.0" y="43625.0" />
    <node id="node_335" type="priority" x="-16204.0" y="54032.0" />
    <node id="node_336" type="priority" x="5854.7" y="48108.0" />
    <node id="node_337" type="priority" x="4891.3" y="44961.0" />
    <node id="node_338" type="priority" x="7222.4" y="42602.0" />
    <node id="node_339" type="priority" x="8654.2" y="41983.0" />
    <node id="node_340" type="priority" x="9589.0" y="41239.0" />
    <node id="node_341" type="priority" x="-14226.0" y="44741.0" />
    <node id="node_342" type="priority" x="-6999.3" y="48719.0" />
    <node id="node_343" type="priority" x="7082.1" y="42739.0" />
    <node id="node_344" type="priority" x="8125.9" y="43799.0" />
    <node id="node_345" type="priority" x="6696.6" y="42115.0" />
    <node id="node_346" type="priority" x="8005.7" y="40932.0" />
    <node id="node_347" type="priority" x="9213.5" y="41053.0" />
    <node id="node_348" type="priority" x="-9799.2" y="-45609.0" />
    <node id="node_349" type="priority" x="-6917.1" y="-42282.0" />
    <node id="node_350" type="priority" x="-18306.0" y="-48336.0" />
    <node id="node_351" type="priority" x="-6985.5" y="-40448.0" />
    <node id="node_352" type="priority" x="-6652.5" y="-40320.0" />
    <node id="node_353" type="priority" x="-8990.2" y="-44144.0" />
    <node id="node_354" type="priority" x="-8348.0" y="-50235.0" />
    <node id="node_355" type="priority" x="-11269.0" y="-45945.0" />
    <node id="node_356" type="priority" x="-7986.2" y="-44079.0" />
    <node id="node_357" type="priority" x="-8487.7" y="-45527.0" />
    <node id="node_358" type="priority" x="-9856.1" y="-44049.0" />
    <node id="node_359" type="priority" x="-11359.0" y="-45528.0" />
    <node id="node_360" type="priority" x="-9354.1" y="-45653.0" />
    <node id="node_361" type="priority" x="-7154.8" y="-41834.0" />
    <node id="node_362" type="priority" x="-15567.0" y="-37946.0" />
    <node id="node_363" type="priority" x="-15124.0" y="-37867.0" />
    <node id="node_364" type="priority" x="-11011.0" y="-35885.0" />
    <node id="node_365" type="priority" x="-14652.0" y="-43506.0" />
    <node id="node_366" type="priority" x="-15826.0" y="18770.0" />
    <node id="node_367" type="priority" x="-15922.0" y="19013.0" />
    <node id="node_368" type="priority" x="-14965.0" y="19734.0" />
    <node id="node_369" type="priority" x="-15310.0" y="20282.0" />
    <node id="node_370" type="priority" x="-14565.0" y="19126.0" />
    <node id="node_371" type="priority" x="-14806.0" y="18951.0" />
    <node id="node_372" type="priority" x="-15422.0" y="17705.0" />
    <node id="node_373" type="priority" x="-18549.0" y="19906.0" />
    <node id="node_374" type="priority" x="-22889.0" y="32588.0" />
    <node id="node_375" type="priority" x="-21071.0" y="250050.0" />
    <node id="node_376" type="priority" x="-18206.0" y="83025.0" />
    <node id="node_377" type="priority" x="-23291.0" y="249350.0" />
    <node id="node_378" type="priority" x="-20164.0" y="85334.0" />
    <node id="node_379" type="priority" x="-21292.0" y="250460.0" />
    <node id="node_380" type="priority" x="-27455.0" y="42566.0" />
    <node id="node_381" type="priority" x="46321.0" y="-39000.0" />
    <node id="node_382" type="priority" x="46241.0" y="-39480.0" />
    <node id="node_383" type="priority" x="46426.0" y="-39128.0" />
    <node id="node_384" type="priority" x="46430.0" y="-39104.0" />
    <node id="node_385" type="priority" x="45668.0" y="-38181.0" />
    <node id="node_386" type="priority" x="46299.0" y="-39199.0" />
    <node id="node_387" type="priority" x="45565.0" y="-38141.0" />
    <node id="node_388" type="priority" x="45587.0" y="-38132.0" />
    <node id="node_389" type="priority" x="19217.0" y="-1581.1" />
    <node id="node_390" type="priority" x="6735.7" y="6607.7" />
    <node id="node_391" type="priority" x="-41458.0" y="3521.9" />
    <node id="node_392" type="priority" x="-41533.0" y="3781.8" />
    <node id="node_393" type="priority" x="-48832.0" y="6319.3" />
    <node id="node_394" type="priority" x="-41927.0" y="-10035.0" />
    <node id="node_395" type="priority" x="-41475.0" y="-9206.7" />
    <node id="node_396" type="priority" x="-41321.0" y="-7094.6" />
    <node id="node_397" type="priority" x="-20665.0" y="14669.0" />
    <node id="node_398" type="priority" x="-22491.0" y="14445.0" />
    <node id="node_399" type="priority" x="-21476.0" y="14924.0" />
    <node id="node_400" type="priority" x="-21592.0" y="15076.0" />
    <node id="node_401" type="priority" x="-20649.0" y="14460.0" />
    <node id="node_402" type="priority" x="-22197.0" y="14683.0" />
    <node id="node_403" type="priority" x="-21729.0" y="16281.0" />
    <node id="node_404" type="priority" x="-21823.0" y="16011.0" />
    <node id="node_405" type="priority" x="-22600.0" y="19435.0" />
    <node id="node_406" type="priority" x="-22170.0" y="18848.0" />
    <node id="node_407" type="priority" x="-6989.6" y="-34891.0" />
    <node id="node_408" type="priority" x="-8507.7" y="-32275.0" />
    <node id="node_409" type="priority" x="-6962.3" y="-34512.0" />
    <node id="node_410" type="priority" x="-8677.2" y="-32479.0" />
    <node id="node_411" type="priority" x="-9394.0" y="-32705.0" />
    <node id="node_412" type="priority" x="-8931.0" y="-33185.0" />
    <node id="node_413" type="priority" x="26994.0" y="-21099.0" />
    <node id="node_414" type="priority" x="26564.0" y="-21094.0" />
    <node id="node_415" type="priority" x="10584.0" y="4722.1" />
    <node id="node_416" type="priority" x="9243.2" y="4434.2" />
    <node id="node_417" type="priority" x="31498.0" y="-8580.9" />
    <node id="node_418" type="priority" x="-10258.0" y="24325.0" />
    <node id="node_419" type="priority" x="-25049.0" y="30219.0" />
    <node id="node_420" tl="GS_1163010482" type="traffic_light" x="-10403.0" y="24615.0" />
    <node id="node_421" type="priority" x="-4169.3" y="-9911.5" />
    <node id="node_422" type="priority" x="7234.8" y="-4911.9" />
    <node id="node_423" type="priority" x="7308.4" y="-8097.5" />
    <node id="node_424" tl="GS_1166168346" type="traffic_light" x="7129.2" y="-7312.4" />
    <node id="node_425" type="priority" x="6943.8" y="-8709.5" />
    <node id="node_426" type="priority" x="7613.2" y="-6706.3" />
    <node id="node_427" type="priority" x="8319.2" y="-8392.1" />
    <node id="node_428" type="priority" x="9197.8" y="-5455.3" />
    <node id="node_429" type="priority" x="7998.7" y="-7915.3" />
    <node id="node_430" type="priority" x="7104.7" y="-4803.1" />