<?xml version='1.0' encoding='UTF-8'?>
<nodes xmlns:xsi="http://www.w3.org/2001/XMLSchema-instance" version="0.27" xsi:noNamespaceSchemaLocation="http://sumo.dlr.de/xsd/nodes_file.xsd">
    <location convBoundary="2208.92,522.44,21219.92,15402.46" netOffset="-224973.31,-2700122.99" origBoundary="54.286966,24.391306,54.609531,24.591038" projParameter="+proj=utm +zone=40 +ellps=WGS84 +datum=WGS84 +units=m +no_defs" />

    <node id="node_0" type="priority" x="993.6" y="-552.83" />
    <node id="node_1" type="priority" x="462.87" y="517.57" />
    <node id="node_2" type="priority" x="338.56" y="675.8" />
    <node id="node_3" tl="GS_1003388266" type="traffic_light" x="-127.45" y="-50.925" />
    <node id="node_4" type="priority" x="85.856" y="38.499" />
    <node id="node_5" type="priority" x="-146.7" y="-56.854" />
    <node id="node_6" tl="GS_1003388319" type="traffic_light" x="96.045" y="20.463" />
    <node id="node_7" type="priority" x="-240.43" y="601.24" />
    <node id="node_8" type="priority" x="-194.45" y="672.47" />
    <node id="node_9" type="priority" x="183.35" y="481.19" />
    <node id="node_10" type="priority" x="-1122.8" y="167.2" />
    <node id="node_11" type="priority" x="-1121.5" y="165.8" />
    <node id="node_12" type="priority" x="-1117.1" y="-259.97" />
    <node id="node_13" type="priority" x="-1230.0" y="-78.686" />
    <node id="node_14" type="unregulated" x="-1271.5" y="-56.031" />
    <node id="node_15" type="unregulated" x="-1268.6" y="-124.17" />
    <node id="node_16" type="priority" x="-1232.1" y="-71.535" />
    <node id="node_17" type="priority" x="1069.1" y="-489.48" />
    <node id="node_18" type="priority" x="1060.9" y="-494.69" />
    <node id="node_19" type="priority" x="94.352" y="700.8" />
    <node id="node_20" type="priority" x="74.166" y="679.73" />
    <node id="node_21" type="priority" x="68.224" y="690.95" />
    <node id="node_22" type="priority" x="-329.35" y="610.49" />
    <node id="node_23" type="priority" x="96.501" y="701.43" />
    <node id="node_24" type="priority" x="-312.75" y="599.02" />
    <node id="node_25" type="priority" x="-488.38" y="556.73" />
    <node id="node_26" type="priority" x="-718.23" y="347.74" />
    <node id="node_27" type="priority" x="-1088.8" y="142.12" />
    <node id="node_28" type="priority" x="-829.47" y="287.75" />
    <node id="node_29" type="priority" x="-578.81" y="543.27" />
    <node id="node_30" type="priority" x="-506.07" y="563.42" />
    <node id="node_31" type="priority" x="-689.0" y="373.99" />
    <node id="node_32" type="priority" x="-596.77" y="544.68" />
    <node id="node_33" type="priority" x="-697.55" y="362.28" />
    <node id="node_34" type="priority" x="-590.63" y="547.59" />
    <node id="node_35" type="priority" x="-696.34" y="372.13" />
    <node id="node_36" type="priority" x="-277.38" y="587.23" />
    <node id="node_37" type="priority" x="-260.89" y="618.46" />
    <node id="node_38" type="priority" x="-287.19" y="599.74" />
    <node id="node_39" type="priority" x="-391.95" y="592.24" />
    <node id="node_40" type="priority" x="-250.59" y="596.45" />
    <node id="node_41" type="priority" x="-245.49" y="594.65" />
    <node id="node_42" type="priority" x="-267.09" y="593.81" />
    <node id="node_43" type="priority" x="-258.19" y="607.99" />
    <node id="node_44" type="priority" x="-297.8" y="600.98" />
    <node id="node_45" type="priority" x="-267.17" y="582.21" />
    <node id="node_46" type="priority" x="-384.99" y="593.54" />
    <node id="node_47" type="priority" x="-404.72" y="603.74" />
    <node id="node_48" type="priority" x="-386.03" y="590.18" />
    <node id="node_49" type="priority" x="-376.2" y="594.39" />
    <node id="node_50" type="priority" x="-397.6" y="591.99" />
    <node id="node_51" type="priority" x="-400.47" y="593.18" />
    <node id="node_52" type="priority" x="-387.78" y="600.21" />
    <node id="node_53" type="priority" x="-429.21" y="605.79" />
    <node id="node_54" type="priority" x="-452.68" y="541.23" />
    <node id="node_55" type="priority" x="-461.28" y="540.56" />
    <node id="node_56" type="priority" x="253.95" y="249.25" />
    <node id="node_57" type="priority" x="-718.92" y="-137.98" />
    <node id="node_58" type="priority" x="-677.74" y="-189.79" />
    <node id="node_59" type="priority" x="-700.75" y="-167.91" />
    <node id="node_60" type="priority" x="-669.07" y="-180.45" />
    <node id="node_61" type="priority" x="-721.29" y="-164.72" />
    <node id="node_62" type="priority" x="-717.53" y="-162.04" />
    <node id="node_63" type="priority" x="-705.53" y="-183.77" />
    <node id="node_64" type="priority" x="-701.0" y="-146.43" />
    <node id="node_65" type="priority" x="-705.81" y="-180.65" />
    <node id="node_66" type="priority" x="-682.86" y="-188.36" />
    <node id="node_67" type="priority" x="-716.64" y="-180.98" />
    <node id="node_68" type="priority" x="-757.64" y="-283.38" />
    <node id="node_69" type="priority" x="-736.02" y="-274.85" />
    <node id="node_70" type="priority" x="-866.77" y="-508.32" />
    <node id="node_71" type="priority" x="-897.73" y="-487.28" />
    <node id="node_72" type="priority" x="-783.28" y="-345.37" />
    <node id="node_73" type="priority" x="-931.68" y="-503.58" />
    <node id="node_74" type="priority" x="-801.75" y="-319.09" />
    <node id="node_75" type="priority" x="-814.44" y="-320.36" />
    <node id="node_76" type="unregulated" x="-706.15" y="-454.17" />
    <node id="node_77" type="priority" x="-890.08" y="-459.6" />
    <node id="node_78" type="priority" x="-857.38" y="-412.06" />
    <node id="node_79" type="priority" x="-964.0" y="-472.79" />
    <node id="node_80" type="unregulated" x="-711.53" y="-447.81" />
    <node id="node_81" type="priority" x="-899.83" y="-456.43" />
    <node id="node_82" type="priority" x="-930.63" y="-499.88" />
    <node id="node_83" type="priority" x="-963.65" y="-472.92" />
    <node id="node_84" type="priority" x="-915.28" y="-458.02" />
    <node id="node_85" type="priority" x="-940.09" y="-304.37" />
    <node id="node_86" type="priority" x="-940.39" y="-302.55" />
    <node id="node_87" type="priority" x="-944.49" y="-292.98" />
    <node id="node_88" type="priority" x="-873.24" y="-517.1" />
    <node id="node_89" type="priority" x="-856.34" y="-491.14" />
    <node id="node_90" type="priority" x="-872.55" y="-516.02" />
    <node id="node_91" type="priority" x="-826.12" y="-458.66" />
    <node id="node_92" type="priority" x="-821.53" y="-478.37" />
    <node id="node_93" type="priority" x="-846.67" y="-334.13" />
    <node id="node_94" type="priority" x="-433.5" y="-461.46" />
    <node id="node_95" type="priority" x="-519.43" y="-460.93" />
    <node id="node_96" type="priority" x="-507.42" y="-475.91" />
    <node id="node_97" type="priority" x="-553.65" y="-457.91" />
    <node id="node_98" type="priority" x="-443.55" y="-494.62" />
    <node id="node_99" type="priority" x="-432.22" y="-449.79" />
    <node id="node_100" type="priority" x="-480.1" y="-482.74" />
    <node id="node_101" type="priority" x="-614.09" y="-433.63" />
    <node id="node_102" type="priority" x="-472.94" y="-502.08" />
    <node id="node_103" type="priority" x="-491.39" y="-490.73" />
    <node id="node_104" type="priority" x="-501.96" y="-488.13" />
    <node id="node_105" type="priority" x="-566.32" y="-459.55" />
    <node id="node_106" type="priority" x="-517.13" y="-454.16" />
    <node id="node_107" type="priority" x="-488.68" y="-488.47" />
    <node id="node_108" type="priority" x="-485.33" y="-496.39" />
    <node id="node_109" type="priority" x="-578.08" y="-456.25" />
    <node id="node_110" type="priority" x="-481.62" y="-483.35" />
    <node id="node_111" type="priority" x="-412.33" y="-479.25" />
    <node id="node_112" type="priority" x="-502.18" y="-466.56" />
    <node id="node_113" type="priority" x="-599.78" y="-447.25" />
    <node id="node_114" type="priority" x="-487.5" y="-491.7" />
    <node id="node_115" type="priority" x="-523.05" y="-462.95" />
    <node id="node_116" type="priority" x="-510.92" y="-460.67" />
    <node id="node_117" type="priority" x="-405.99" y="-469.13" />
    <node id="node_118" type="priority" x="-503.99" y="-472.86" />
    <node id="node_119" type="priority" x="-586.11" y="-438.19" />
    <node id="node_120" type="priority" x="-555.71" y="-450.95" />
    <node id="node_121" type="priority" x="-496.02" y="-476.18" />
    <node id="node_122" type="priority" x="-432.94" y="-435.52" />
    <node id="node_123" type="priority" x="-484.07" y="-489.33" />
    <node id="node_124" type="priority" x="-476.76" y="-484.31" />
    <node id="node_125" type="priority" x="-568.24" y="-456.66" />
    <node id="node_126" type="priority" x="-568.52" y="-426.72" />
    <node id="node_127" type="priority" x="-474.15" y="-491.17" />
    <node id="node_128" type="priority" x="-420.44" y="-263.92" />
    <node id="node_129" type="priority" x="-428.41" y="-288.97" />
    <node id="node_130" type="priority" x="-432.97" y="-281.12" />
    <node id="node_131" type="priority" x="-423.32" y="-282.29" />
    <node id="node_132" type="priority" x="-675.55" y="-153.58" />
    <node id="node_133" tl="GS_1052165761" type="traffic_light" x="-97.612" y="-12.885" />
    <node id="node_134" type="priority" x="-795.46" y="-38.204" />
    <node id="node_135" type="priority" x="-935.71" y="-164.59" />
    <node id="node_136" type="priority" x="-240.33" y="-305.63" />
    <node id="node_137" type="priority" x="-240.72" y="-305.2" />
    <node id="node_138" type="priority" x="-398.11" y="48.867" />
    <node id="node_139" type="priority" x="-813.9" y="41.659" />
    <node id="node_140" type="priority" x="-639.51" y="-145.77" />
    <node id="node_141" type="priority" x="-797.38" y="12.035" />
    <node id="node_142" type="priority" x="-847.05" y="106.97" />
    <node id="node_143" type="priority" x="-531.81" y="-100.44" />
    <node id="node_144" type="priority" x="-259.76" y="-321.84" />
    <node id="node_145" type="priority" x="-523.68" y="-78.296" />
    <node id="node_146" type="priority" x="-780.61" y="-23.287" />
    <node id="node_147" type="priority" x="-689.9" y="-123.17" />
    <node id="node_148" type="priority" x="-162.74" y="-98.811" />
    <node id="node_149" type="priority" x="-139.52" y="-315.87" />
    <node id="node_150" type="priority" x="-666.87" y="-133.18" />
    <node id="node_151" type="priority" x="-250.28" y="-320.46" />
    <node id="node_152" type="priority" x="-128.79" y="-310.76" />
    <node id="node_153" type="priority" x="-546.19" y="-83.78" />
    <node id="node_154" type="priority" x="-937.41" y="-156.38" />
    <node id="node_155" type="priority" x="-240.63" y="-300.56" />
    <node id="node_156" type="priority" x="-242.79" y="-291.38" />
    <node id="node_157" type="priority" x="-498.34" y="-99.898" />
    <node id="node_158" type="priority" x="-258.64" y="-313.26" />
    <node id="node_159" type="priority" x="-655.18" y="-132.95" />
    <node id="node_160" type="priority" x="-865.5" y="-222.6" />
    <node id="node_161" type="priority" x="-101.08" y="9.1796" />
    <node id="node_162" type="priority" x="-777.74" y="-61.522" />
    <node id="node_163" type="priority" x="-515.89" y="-104.62" />
    <node id="node_164" type="priority" x="-780.48" y="-11.63" />
    <node id="node_165" type="priority" x="-799.31" y="-7.5353" />
    <node id="node_166" type="priority" x="-854.05" y="43.62" />
    <node id="node_167" type="priority" x="-95.443" y="-27.864" />
    <node id="node_168" type="priority" x="-800.13" y="-14.759" />
    <node id="node_169" type="priority" x="-247.07" y="-307.55" />
    <node id="node_170" type="priority" x="-855.05" y="113.12" />
    <node id="node_171" tl="GS_1052166069" type="traffic_light" x="-121.03" y="5.508" />
    <node id="node_172" type="priority" x="-951.05" y="-150.62" />
    <node id="node_173" type="priority" x="-784.95" y="8.9262" />
    <node id="node_174" type="priority" x="-943.66" y="-181.71" />
    <node id="node_175" type="priority" x="-554.4" y="-98.947" />
    <node id="node_176" type="priority" x="-670.65" y="-140.93" />
    <node id="node_177" type="priority" x="-804.27" y="52.849" />
    <node id="node_178" type="priority" x="-391.86" y="50.791" />
    <node id="node_179" type="priority" x="-937.53" y="-156.47" />
    <node id="node_180" type="priority" x="-678.13" y="-124.04" />
    <node id="node_181" type="priority" x="-238.16" y="-318.92" />
    <node id="node_182" type="priority" x="-134.26" y="-7.3132" />
    <node id="node_183" type="priority" x="-241.3" y="-316.64" />
    <node id="node_184" type="priority" x="-678.86" y="-157.23" />
    <node id="node_185" type="priority" x="-951.2" y="-150.69" />
    <node id="node_186" tl="GS_1052166282" type="traffic_light" x="-133.06" y="-24.723" />
    <node id="node_187" type="priority" x="-472.95" y="497.08" />
    <node id="node_188" type="priority" x="-506.8" y="532.52" />
    <node id="node_189" type="priority" x="-447.51" y="558.44" />
    <node id="node_190" type="priority" x="-366.09" y="563.77" />
    <node id="node_191" type="priority" x="-429.18" y="538.63" />
    <node id="node_192" type="priority" x="-428.97" y="538.85" />
    <node id="node_193" type="priority" x="-392.41" y="528.2" />
    <node id="node_194" type="priority" x="-460.1" y="526.56" />
    <node id="node_195" type="priority" x="-432.88" y="543.47" />
    <node id="node_196" type="priority" x="-334.48" y="562.87" />
    <node id="node_197" type="priority" x="-416.3" y="615.62" />
    <node id="node_198" type="priority" x="-447.5" y="549.92" />
    <node id="node_199" type="priority" x="-395.6" y="533.9" />
    <node id="node_200" type="priority" x="-451.13" y="516.08" />
    <node id="node_201" type="priority" x="-418.18" y="604.52" />
    <node id="node_202" type="priority" x="-470.85" y="513.69" />
    <node id="node_203" type="priority" x="-418.19" y="571.73" />
    <node id="node_204" type="priority" x="-468.45" y="537.08" />
    <node id="node_205" type="priority" x="-414.66" y="569.58" />
    <node id="node_206" type="priority" x="-416.25" y="598.51" />
    <node id="node_207" type="priority" x="-459.93" y="538.53" />
    <node id="node_208" type="priority" x="-477.08" y="576.01" />
    <node id="node_209" type="priority" x="-390.16" y="542.48" />
    <node id="node_210" type="priority" x="-442.98" y="534.91" />
    <node id="node_211" type="priority" x="-408.43" y="602.88" />
    <node id="node_212" type="priority" x="-429.34" y="582.01" />
    <node id="node_213" type="priority" x="-396.66" y="539.51" />
    <node id="node_214" type="priority" x="-451.08" y="543.61" />
    <node id="node_215" type="priority" x="-428.15" y="537.08" />
    <node id="node_216" type="priority" x="-460.2" y="522.98" />
    <node id="node_217" type="priority" x="-383.76" y="545.63" />
    <node id="node_218" type="priority" x="-388.0" y="522.65" />
    <node id="node_219" type="priority" x="-393.25" y="529.79" />
    <node id="node_220" type="priority" x="-427.72" y="531.18" />
    <node id="node_221" type="priority" x="-382.81" y="539.54" />
    <node id="node_222" type="priority" x="-397.77" y="554.63" />
    <node id="node_223" type="priority" x="-502.33" y="545.85" />
    <node id="node_224" type="priority" x="-453.63" y="539.72" />
    <node id="node_225" type="priority" x="-463.72" y="521.65" />
    <node id="node_226" type="priority" x="-379.64" y="533.32" />
    <node id="node_227" type="priority" x="-475.99" y="494.99" />
    <node id="node_228" type="priority" x="-338.17" y="561.64" />
    <node id="node_229" tl="GS_1061695272" type="traffic_light" x="-333.6" y="573.24" />
    <node id="node_230" type="priority" x="-416.84" y="588.23" />
    <node id="node_231" tl="GS_1061695290" type="traffic_light" x="-346.08" y="563.75" />
    <node id="node_232" type="priority" x="-465.93" y="525.3" />
    <node id="node_233" type="priority" x="-221.57" y="-172.23" />
    <node id="node_234" type="priority" x="-11.305" y="-86.574" />
    <node id="node_235" type="priority" x="2.301" y="-134.56" />
    <node id="node_236" type="priority" x="26.952" y="-138.43" />
    <node id="node_237" type="priority" x="-23.989" y="-86.387" />
    <node id="node_238" type="priority" x="-5.1094" y="-125.29" />
    <node id="node_239" type="priority" x="-201.21" y="-195.54" />
    <node id="node_240" type="priority" x="0.38802" y="-106.25" />
    <node id="node_241" type="priority" x="-226.37" y="-169.54" />
    <node id="node_242" type="priority" x="-257.69" y="-192.04" />
    <node id="node_243" type="priority" x="-779.66" y="171.44" />
    <node id="node_244" type="priority" x="-686.3" y="112.87" />
    <node id="node_245" type="priority" x="-771.44" y="167.27" />
    <node id="node_246" type="priority" x="-659.65" y="112.53" />
    <node id="node_247" type="priority" x="-783.0" y="209.08" />
    <node id="node_248" type="priority" x="-784.27" y="148.65" />
    <node id="node_249" type="priority" x="-741.65" y="306.72" />
    <node id="node_250" type="priority" x="-770.68" y="150.57" />
    <node id="node_251" type="priority" x="-765.22" y="205.87" />
    <node id="node_252" type="priority" x="-769.36" y="168.73" />
    <node id="node_253" type="priority" x="-762.84" y="337.16" />
    <node id="node_254" type="priority" x="-842.61" y="113.01" />
    <node id="node_255" type="priority" x="-672.77" y="131.6" />
    <node id="node_256" type="priority" x="-818.75" y="166.29" />
    <node id="node_257" type="priority" x="-761.45" y="327.18" />
    <node id="node_258" type="priority" x="-777.65" y="133.11" />
    <node id="node_259" type="priority" x="-777.28" y="203.24" />
    <node id="node_260" type="priority" x="-729.43" y="297.96" />
    <node id="node_261" type="priority" x="-840.18" y="95.213" />
    <node id="node_262" type="priority" x="-791.94" y="165.2" />
    <node id="node_263" type="priority" x="-761.34" y="160.03" />
    <node id="node_264" type="priority" x="-684.22" y="108.12" />
    <node id="node_265" type="priority" x="-730.94" y="286.44" />
    <node id="node_266" type="priority" x="-749.67" y="314.25" />
    <node id="node_267" type="priority" x="-789.22" y="192.3" />
    <node id="node_268" type="priority" x="-775.04" y="155.31" />
    <node id="node_269" type="priority" x="-795.48" y="266.86" />
    <node id="node_270" type="priority" x="-779.89" y="170.77" />
    <node id="node_271" type="priority" x="-788.18" y="195.09" />
    <node id="node_272" type="priority" x="-780.6" y="140.23" />
    <node id="node_273" type="priority" x="-656.34" y="104.37" />
    <node id="node_274" type="priority" x="-767.46" y="146.7" />
    <node id="node_275" type="priority" x="-737.64" y="284.12" />
    <node id="node_276" type="priority" x="-783.4" y="199.87" />
    <node id="node_277" type="priority" x="-772.95" y="125.87" />
    <node id="node_278" type="priority" x="-748.3" y="278.94" />
    <node id="node_279" type="priority" x="-401.14" y="589.48" />
    <node id="node_280" type="priority" x="-514.83" y="580.74" />
    <node id="node_281" type="priority" x="-425.87" y="679.96" />
    <node id="node_282" type="priority" x="-345.36" y="746.8" />
    <node id="node_283" type="priority" x="-439.52" y="612.69" />
    <node id="node_284" type="priority" x="-408.87" y="618.29" />
    <node id="node_285" type="priority" x="-410.3" y="626.44" />
    <node id="node_286" type="priority" x="-400.36" y="633.54" />
    <node id="node_287" type="priority" x="-379.19" y="719.02" />
    <node id="node_288" type="priority" x="-388.74" y="662.18" />
    <node id="node_289" type="priority" x="-424.17" y="574.41" />
    <node id="node_290" type="priority" x="-394.21" y="635.26" />
    <node id="node_291" type="priority" x="-375.09" y="643.18" />
    <node id="node_292" type="priority" x="-321.73" y="566.94" />
    <node id="node_293" tl="GS_1066742878" type="traffic_light" x="-330.25" y="567.64" />
    <node id="node_294" type="priority" x="-364.56" y="621.49" />
    <node id="node_295" tl="GS_1066742913" type="traffic_light" x="-354.54" y="584.5" />
    <node id="node_296" type="priority" x="-652.52" y="416.88" />
    <node id="node_297" type="priority" x="-652.05" y="434.6" />
    <node id="node_298" type="priority" x="-602.9" y="477.8" />
    <node id="node_299" type="priority" x="-656.62" y="425.26" />
    <node id="node_300" type="priority" x="-672.66" y="404.78" />
    <node id="node_301" type="priority" x="-607.56" y="472.42" />
    <node id="node_302" type="priority" x="-650.71" y="446.64" />
    <node id="node_303" type="priority" x="-661.4" y="415.85" />
    <node id="node_304" type="priority" x="-546.18" y="520.45" />
    <node id="node_305" type="priority" x="-560.06" y="516.23" />
    <node id="node_306" type="priority" x="-585.45" y="499.49" />
    <node id="node_307" type="priority" x="55.008" y="724.68" />
    <node id="node_308" type="priority" x="-113.64" y="690.75" />
    <node id="node_309" type="priority" x="-19.68" y="695.55" />
    <node id="node_310" type="priority" x="-45.767" y="693.69" />
    <node id="node_311" type="priority" x="-53.44" y="772.64" />
    <node id="node_312" type="priority" x="-109.57" y="679.9" />
    <node id="node_313" type="priority" x="-104.34" y="659.89" />
    <node id="node_314" type="priority" x="-42.532" y="754.54" />
    <node id="node_315" type="priority" x="-105.21" y="687.59" />
    <node id="node_316" type="priority" x="-27.769" y="675.79" />
    <node id="node_317" type="priority" x="22.32" y="746.41" />
    <node id="node_318" type="priority" x="-73.123" y="748.11" />
    <node id="node_319" type="priority" x="57.516" y="734.88" />
    <node id="node_320" tl="GS_1067889614" type="traffic_light" x="46.131" y="708.67" />
    <node id="node_321" type="priority" x="53.316" y="718.33" />
    <node id="node_322" type="priority" x="-97.654" y="701.43" />
    <node id="node_323" type="priority" x="38.026" y="743.57" />
    <node id="node_324" type="priority" x="-49.292" y="747.1" />
    <node id="node_325" type="priority" x="25.813" y="708.95" />
    <node id="node_326" type="priority" x="-12.295" y="715.25" />
    <node id="node_327" type="priority" x="-9.9161" y="732.48" />
    <node id="node_328" type="priority" x="-80.718" y="688.75" />
    <node id="node_329" type="priority" x="32.463" y="722.19" />
    <node id="node_330" type="priority" x="-55.675" y="672.54" />
    <node id="node_331" type="priority" x="-45.497" y="760.5" />
    <node id="node_332" type="priority" x="-44.968" y="735.36" />
    <node id="node_333" type="priority" x="-66.794" y="746.06" />
    <node id="node_334" type="priority" x="-97.003" y="673.12" />
    <node id="node_335" type="priority" x="-67.727" y="742.73" />
    <node id="node_336" type="priority" x="-37.271" y="756.34" />
    <node id="node_337" type="priority" x="-47.487" y="677.35" />
    <node id="node_338" type="priority" x="12.531" y="732.98" />
    <node id="node_339" type="priority" x="47.62" y="730.95" />
    <node id="node_340" type="priority" x="75.074" y="732.63" />
    <node id="node_341" type="priority" x="-108.21" y="696.5" />
    <node id="node_342" type="priority" x="-72.432" y="706.49" />
    <node id="node_343" type="priority" x="-0.8931" y="733.86" />
    <node id="node_344" type="priority" x="39.845" y="737.7" />
    <node id="node_345" type="priority" x="6.9919" y="706.43" />
    <node id="node_346" type="priority" x="35.778" y="717.73" />
    <node id="node_347" type="priority" x="58.057" y="726.75" />
    <node id="node_348" type="priority" x="-143.16" y="-743.6" />
    <node id="node_349" type="priority" x="-97.432" y="-693.48" />
    <node id="node_350" type="priority" x="-320.73" y="-719.93" />
    <node id="node_351" type="priority" x="-120.59" y="-650.0" />
    <node id="node_352" type="priority" x="-119.68" y="-642.09" />
    <node id="node_353" type="priority" x="-116.17" y="-722.71" />
    <node id="node_354" type="priority" x="-179.76" y="-748.99" />
    <node id="node_355" type="priority" x="-166.11" y="-776.34" />
    <node id="node_356" type="priority" x="-112.95" y="-712.08" />
    <node id="node_357" type="priority" x="-132.29" y="-719.61" />
    <node id="node_358" type="priority" x="-123.06" y="-737.85" />
    <node id="node_359" type="priority" x="-156.09" y="-780.86" />
    <node id="node_360" type="priority" x="-140.08" y="-737.14" />
    <node id="node_361" type="priority" x="-93.287" y="-681.74" />
    <node id="node_362" type="priority" x="-335.28" y="-664.54" />
    <node id="node_363" type="priority" x="-311.37" y="-670.17" />
    <node id="node_364" type="priority" x="-220.32" y="-621.82" />
    <node id="node_365" type="priority" x="-193.37" y="-649.85" />
    <node id="node_366" type="priority" x="-410.57" y="646.28" />
    <node id="node_367" type="priority" x="-409.98" y="648.12" />
    <node id="node_368" type="priority" x="-342.44" y="608.57" />
    <node id="node_369" type="priority" x="-337.05" y="586.25" />
    <node id="node_370" type="priority" x="-337.71" y="617.62" />
    <node id="node_371" type="priority" x="-350.01" y="616.77" />
    <node id="node_372" type="priority" x="-365.17" y="736.1" />
    <node id="node_373" type="priority" x="-412.55" y="584.16" />
    <node id="node_374" type="priority" x="-429.62" y="569.8" />
    <node id="node_375" type="priority" x="-235.78" y="1874.3" />
    <node id="node_376" type="priority" x="-57.468" y="878.82" />
    <node id="node_377" type="priority" x="-245.89" y="1871.1" />
    <node id="node_378" type="priority" x="-285.22" y="992.6" />
    <node id="node_379" type="priority" x="-254.04" y="1897.6" />
    <node id="node_380" type="priority" x="-447.47" y="598.53" />
    <node id="node_381" type="priority" x="818.56" y="-701.9" />
    <node id="node_382" type="priority" x="828.51" y="-710.8" />
    <node id="node_383" type="priority" x="820.63" y="-698.99" />
    <node id="node_384" type="priority" x="820.07" y="-698.47" />
    <node id="node_385" type="priority" x="767.3" y="-718.13" />
    <node id="node_386" type="priority" x="822.26" y="-703.98" />
    <node id="node_387" type="priority" x="766.0" y="-718.56" />
    <node id="node_388" type="priority" x="765.61" y="-718.6" />
    <node id="node_389" type="priority" x="238.02" y="113.07" />
    <node id="node_390" type="priority" x="111.26" y="296.74" />
    <node id="node_391" type="priority" x="-988.68" y="37.273" />
    <node id="node_392" type="priority" x="-986.4" y="36.882" />
    <node id="node_393" type="priority" x="-1101.0" y="7.8234" />
    <node id="node_394" type="priority" x="-888.92" y="-227.82" />
    <node id="node_395" type="priority" x="-895.19" y="-223.65" />
    <node id="node_396" type="priority" x="-925.48" y="-207.02" />
    <node id="node_397" type="priority" x="-491.36" y="563.26" />
    <node id="node_398" type="priority" x="-535.09" y="559.5" />
    <node id="node_399" type="priority" x="-486.8" y="552.14" />
    <node id="node_400" type="priority" x="-494.82" y="551.11" />
    <node id="node_401" type="priority" x="-485.13" y="564.29" />
    <node id="node_402" type="priority" x="-542.21" y="562.46" />
    <node id="node_403" type="priority" x="-517.59" y="544.78" />
    <node id="node_404" type="priority" x="-516.57" y="553.65" />
    <node id="node_405" type="priority" x="-652.62" y="566.51" />
    <node id="node_406" type="priority" x="-584.41" y="569.81" />
    <node id="node_407" type="priority" x="-136.56" y="-601.55" />
    <node id="node_408" type="priority" x="-186.17" y="-533.7" />
    <node id="node_409" type="priority" x="-138.46" y="-588.79" />
    <node id="node_410" type="priority" x="-198.21" y="-532.59" />
    <node id="node_411" type="priority" x="-187.04" y="-543.53" />
    <node id="node_412" type="priority" x="-187.46" y="-553.53" />
    <node id="node_413" type="priority" x="414.19" y="-549.9" />
    <node id="node_414" type="priority" x="450.88" y="-559.94" />
    <node id="node_415" type="priority" x="84.597" y="196.71" />
    <node id="node_416" type="priority" x="160.22" y="235.17" />
    <node id="node_417" type="priority" x="569.36" y="-257.61" />
    <node id="node_418" type="priority" x="-200.0" y="537.31" />
    <node id="node_419" type="priority" x="-448.52" y="487.98" />
    <node id="node_420" tl="GS_1163010482" type="traffic_light" x="-188.8" y="529.36" />
    <node id="node_421" type="priority" x="3.1731" y="-59.497" />
    <node id="node_422" type="priority" x="164.03" y="-0.50167" />
    <node id="node_423" type="priority" x="168.35" y="-66.165" />
    <node id="node_424" tl="GS_1166168346" type="traffic_light" x="173.79" y="-29.713" />
    <node id="node_425" type="priority" x="162.4" y="-93.723" />
    <node id="node_426" type="priority" x="184.73" y="-33.379" />
    <node id="node_427" type="priority" x="202.71" y="-78.979" />
    <node id="node_428" type="priority" x="174.17" y="-11.129" />
    <node id="node_429" type="priority" x="194.93" y="-68.082" />
    <node id="node_430" type="priority" x="162.83" y="1.0773" />
    <node id="node_431" tl="GS_1166168462" type="traffic_light" x="191.53" y="-57.417" />
    <node id="node_432" type="priority" x="170.7" y="-12.569" />
    <node id="node_433" tl="GS_1166168470" type="traffic_light" x="184.65" y="-80.081" />
    <node id="node_434" type="priority" x="155.78" y="-99.023" />
    <node id="node_435" tl="GS_1166168480" type="traffic_light" x="170.65" y="-61.666" />
    <node id="node_436" type="priority" x="170.4" y="-84.431" />
    <node id="node_437" type="priority" x="170.16" y="-55.428" />
    <node id="node_438" type="priority" x="194.86" y="-53.481" />
    <node id="node_439" type="priority" x="196.04" y="-31.683" />
    <node id="node_440" type="priority" x="166.21" y="-69.018" />
    <node id="node_441" type="priority" x="0.056234" y="-72.621" />
    <node id="node_442" type="priority" x="145.63" y="346.14" />