<?xml version='1.0' encoding='UTF-8'?>
<nodes xmlns:xsi="http://www.w3.org/2001/XMLSchema-instance" version="0.27" xsi:noNamespaceSchemaLocation="http://sumo.dlr.de/xsd/nodes_file.xsd">
    <location convBoundary="2208.92,522.44,21219.92,15402.46" netOffset="-224973.31,-2700122.99" origBoundary="54.286966,24.391306,54.609531,24.591038" projParameter="+proj=utm +zone=40 +ellps=WGS84 +datum=WGS84 +units=m +no_defs" />

    <node id="node_0" type="priority" x="1180.9" y="-665.41" />
    <node id="node_1" type="priority" x="451.99" y="539.58" />
    <node id="node_2" type="priority" x="316.21" y="701.64" />
    <node id="node_3" tl="GS_1003388266" type="traffic_light" x="-109.4" y="-12.902" />
    <node id="node_4" type="priority" x="81.653" y="31.756" />
    <node id="node_5" type="priority" x="-127.28" y="-17.667" />
    <node id="node_6" tl="GS_1003388319" type="traffic_light" x="94.367" y="19.25" />
    <node id="node_7" type="priority" x="-291.52" y="705.75" />
    <node id="node_8" type="priority" x="-217.02" y="737.24" />
    <node id="node_9" type="priority" x="129.38" y="507.3" />
    <node id="node_10" type="priority" x="-1208.2" y="218.26" />
    <node id="node_11" type="priority" x="-1206.2" y="216.22" />
    <node id="node_12" type="priority" x="-1167.9" y="-194.61" />
    <node id="node_13" type="priority" x="-1433.2" y="-77.443" />
    <node id="node_14" type="unregulated" x="-1537.0" y="-37.189" />
    <node id="node_15" type="unregulated" x="-3452.8" y="-872.16" />
    <node id="node_16" type="priority" x="-1344.3" y="-49.571" />
    <node id="node_17" type="priority" x="1295.9" y="-615.58" />
    <node id="node_18" type="priority" x="1289.2" y="-619.31" />
    <node id="node_19" type="priority" x="60.332" y="722.68" />
    <node id="node_20" type="priority" x="43.163" y="706.9" />
    <node id="node_21" type="priority" x="39.154" y="717.28" />
    <node id="node_22" type="priority" x="-427.01" y="696.19" />
    <node id="node_23" type="priority" x="65.162" y="722.3" />
    <node id="node_24" type="priority" x="-408.86" y="691.3" />
    <node id="node_25" type="priority" x="-593.03" y="624.65" />
    <node id="node_26" type="priority" x="-770.07" y="423.1" />
    <node id="node_27" type="priority" x="-1178.5" y="190.84" />
    <node id="node_28" type="priority" x="-883.06" y="349.85" />
    <node id="node_29" type="priority" x="-703.27" y="594.22" />
    <node id="node_30" type="priority" x="-610.19" y="629.0" />
    <node id="node_31" type="priority" x="-744.45" y="443.93" />
    <node id="node_32" type="priority" x="-722.53" y="593.08" />
    <node id="node_33" type="priority" x="-747.28" y="433.05" />
    <node id="node_34" type="priority" x="-715.33" y="597.79" />
    <node id="node_35" type="priority" x="-752.54" y="442.05" />
    <node id="node_36" type="priority" x="-346.98" y="679.3" />
    <node id="node_37" type="priority" x="-320.34" y="729.77" />
    <node id="node_38" type="priority" x="-365.43" y="697.61" />
    <node id="node_39" type="priority" x="-486.76" y="680.82" />
    <node id="node_40" type="priority" x="-311.66" y="701.56" />
    <node id="node_41" type="priority" x="-322.94" y="705.67" />
    <node id="node_42" type="priority" x="-339.34" y="693.99" />
    <node id="node_43" type="priority" x="-313.23" y="702.55" />
    <node id="node_44" type="priority" x="-384.58" y="696.4" />
    <node id="node_45" type="priority" x="-336.45" y="675.96" />
    <node id="node_46" type="priority" x="-487.76" y="667.65" />
    <node id="node_47" type="priority" x="-503.19" y="672.09" />
    <node id="node_48" type="priority" x="-488.35" y="664.6" />
    <node id="node_49" type="priority" x="-481.62" y="670.16" />
    <node id="node_50" type="priority" x="-497.2" y="664.02" />
    <node id="node_51" type="priority" x="-500.01" y="665.05" />
    <node id="node_52" type="priority" x="-490.6" y="672.66" />
    <node id="node_53" type="priority" x="-518.21" y="669.32" />
    <node id="node_54" type="priority" x="-529.81" y="583.98" />
    <node id="node_55" type="priority" x="-539.46" y="584.53" />
    <node id="node_56" type="priority" x="278.17" y="252.97" />
    <node id="node_57" type="priority" x="-747.7" y="-107.94" />
    <node id="node_58" type="priority" x="-712.67" y="-136.96" />
    <node id="node_59" type="priority" x="-729.11" y="-130.61" />
    <node id="node_60" type="priority" x="-709.14" y="-129.07" />
    <node id="node_61" type="priority" x="-748.96" y="-133.77" />
    <node id="node_62" type="priority" x="-745.72" y="-126.97" />
    <node id="node_63" type="priority" x="-731.53" y="-146.63" />
    <node id="node_64" type="priority" x="-729.09" y="-115.66" />
    <node id="node_65" type="priority" x="-731.6" y="-142.92" />
    <node id="node_66" type="priority" x="-717.46" y="-135.67" />
    <node id="node_67" type="priority" x="-742.45" y="-143.93" />
    <node id="node_68" type="priority" x="-801.88" y="-241.16" />
    <node id="node_69" type="priority" x="-767.61" y="-209.61" />
    <node id="node_70" type="priority" x="-898.17" y="-444.95" />
    <node id="node_71" type="priority" x="-931.43" y="-425.58" />
    <node id="node_72" type="priority" x="-847.43" y="-305.19" />
    <node id="node_73" type="priority" x="-989.8" y="-472.73" />
    <node id="node_74" type="priority" x="-853.5" y="-266.32" />
    <node id="node_75" type="priority" x="-868.69" y="-265.26" />
    <node id="node_76" type="unregulated" x="-770.08" y="-432.74" />
    <node id="node_77" type="priority" x="-937.92" y="-409.9" />
    <node id="node_78" type="priority" x="-896.92" y="-346.69" />
    <node id="node_79" type="priority" x="-1118.8" y="-455.88" />
    <node id="node_80" type="unregulated" x="-777.24" y="-435.21" />
    <node id="node_81" type="priority" x="-944.89" y="-404.48" />
    <node id="node_82" type="priority" x="-988.01" y="-463.96" />
    <node id="node_83" type="priority" x="-1118.4" y="-456.02" />
    <node id="node_84" type="priority" x="-965.14" y="-404.53" />
    <node id="node_85" type="priority" x="-1011.9" y="-267.43" />
    <node id="node_86" type="priority" x="-1012.3" y="-265.54" />
    <node id="node_87" type="priority" x="-1018.1" y="-252.57" />
    <node id="node_88" type="priority" x="-916.96" y="-471.15" />
    <node id="node_89" type="priority" x="-884.2" y="-419.04" />
    <node id="node_90" type="priority" x="-915.43" y="-468.65" />
    <node id="node_91" type="priority" x="-845.47" y="-375.21" />
    <node id="node_92" type="priority" x="-827.23" y="-385.44" />
    <node id="node_93" type="priority" x="-889.15" y="-256.24" />
    <node id="node_94" type="priority" x="-443.91" y="-406.17" />
    <node id="node_95" type="priority" x="-522.19" y="-393.5" />
    <node id="node_96" type="priority" x="-508.35" y="-406.93" />
    <node id="node_97" type="priority" x="-595.31" y="-415.61" />
    <node id="node_98" type="priority" x="-470.26" y="-467.42" />
    <node id="node_99" type="priority" x="-442.98" y="-399.26" />
    <node id="node_100" type="priority" x="-480.54" y="-412.35" />
    <node id="node_101" type="priority" x="-648.91" y="-398.22" />
    <node id="node_102" type="priority" x="-502.89" y="-472.87" />
    <node id="node_103" type="priority" x="-520.15" y="-459.09" />
    <node id="node_104" type="priority" x="-531.63" y="-457.56" />
    <node id="node_105" type="priority" x="-602.38" y="-397.98" />
    <node id="node_106" type="priority" x="-519.8" y="-387.47" />
    <node id="node_107" type="priority" x="-517.4" y="-456.96" />
    <node id="node_108" type="priority" x="-516.88" y="-464.82" />
    <node id="node_109" type="priority" x="-619.04" y="-414.43" />
    <node id="node_110" type="priority" x="-502.48" y="-446.12" />
    <node id="node_111" type="priority" x="-429.58" y="-443.34" />
    <node id="node_112" type="priority" x="-503.8" y="-398.25" />
    <node id="node_113" type="priority" x="-640.08" y="-411.27" />
    <node id="node_114" type="priority" x="-487.23" y="-421.64" />
    <node id="node_115" type="priority" x="-526.46" y="-395.86" />
    <node id="node_116" type="priority" x="-512.88" y="-393.62" />
    <node id="node_117" type="priority" x="-421.75" y="-431.18" />
    <node id="node_118" type="priority" x="-504.89" y="-404.28" />
    <node id="node_119" type="priority" x="-627.91" y="-396.06" />
    <node id="node_120" type="priority" x="-596.67" y="-407.15" />
    <node id="node_121" type="priority" x="-496.84" y="-406.01" />
    <node id="node_122" type="priority" x="-445.39" y="-368.0" />
    <node id="node_123" type="priority" x="-483.9" y="-419.1" />
    <node id="node_124" type="priority" x="-493.92" y="-442.7" />
    <node id="node_125" type="priority" x="-608.42" y="-417.15" />
    <node id="node_126" type="priority" x="-608.8" y="-387.89" />
    <node id="node_127" type="priority" x="-473.97" y="-419.31" />
    <node id="node_128" type="priority" x="-426.03" y="-202.67" />
    <node id="node_129" type="priority" x="-440.42" y="-225.58" />
    <node id="node_130" type="priority" x="-447.12" y="-215.5" />
    <node id="node_131" type="priority" x="-432.47" y="-218.26" />
    <node id="node_132" type="priority" x="-734.21" y="-112.05" />
    <node id="node_133" tl="GS_1052165761" type="traffic_light" x="-89.46" y="19.371" />
    <node id="node_134" type="priority" x="-836.96" y="3.117" />
    <node id="node_135" type="priority" x="-5458.0" y="-360.17" />
    <node id="node_136" type="priority" x="-251.76" y="-267.05" />
    <node id="node_137" type="priority" x="-252.22" y="-266.54" />
    <node id="node_138" type="priority" x="-405.34" y="92.85" />
    <node id="node_139" type="priority" x="-858.49" y="77.714" />
    <node id="node_140" type="priority" x="-694.59" y="-101.88" />
    <node id="node_141" type="priority" x="-838.1" y="42.91" />
    <node id="node_142" type="priority" x="-911.27" y="158.1" />
    <node id="node_143" type="priority" x="-551.28" y="-42.29" />
    <node id="node_144" type="priority" x="-274.78" y="-284.97" />
    <node id="node_145" type="priority" x="-550.61" y="-20.644" />
    <node id="node_146" type="priority" x="-821.46" y="12.718" />
    <node id="node_147" type="priority" x="-752.83" y="-80.983" />
    <node id="node_148" type="priority" x="-134.29" y="-50.441" />
    <node id="node_149" type="priority" x="-131.84" y="-275.77" />
    <node id="node_150" type="priority" x="-725.47" y="-89.926" />
    <node id="node_151" type="priority" x="-262.48" y="-283.99" />
    <node id="node_152" type="priority" x="-122.44" y="-272.8" />
    <node id="node_153" type="priority" x="-568.65" y="-25.08" />
    <node id="node_154" type="priority" x="-9138.0" y="-400.76" />
    <node id="node_155" type="priority" x="-251.99" y="-263.83" />
    <node id="node_156" type="priority" x="-252.46" y="-250.63" />
    <node id="node_157" type="priority" x="-523.94" y="-42.765" />
    <node id="node_158" type="priority" x="-272.86" y="-276.92" />
    <node id="node_159" type="priority" x="-709.38" y="-89.61" />
    <node id="node_160" type="priority" x="-1669.1" y="-258.38" />
    <node id="node_161" type="priority" x="-94.206" y="34.856" />
    <node id="node_162" type="priority" x="-819.44" y="-14.653" />
    <node id="node_163" type="priority" x="-535.27" y="-46.033" />
    <node id="node_164" type="priority" x="-821.63" y="24.883" />
    <node id="node_165" type="priority" x="-839.09" y="28.831" />
    <node id="node_166" type="priority" x="-892.11" y="87.816" />
    <node id="node_167" type="priority" x="-89.644" y="2.5005" />
    <node id="node_168" type="priority" x="-840.69" y="18.807" />
    <node id="node_169" type="priority" x="-258.41" y="-270.49" />
    <node id="node_170" type="priority" x="-919.21" y="163.46" />
    <node id="node_171" tl="GS_1052166069" type="traffic_light" x="-112.79" y="32.936" />
    <node id="node_172" type="priority" x="-13269.0" y="-1105.8" />
    <node id="node_173" type="priority" x="-824.95" y="39.62" />
    <node id="node_174" type="priority" x="-3847.3" y="-403.98" />
    <node id="node_175" type="priority" x="-575.74" y="-41.083" />
    <node id="node_176" type="priority" x="-728.71" y="-99.663" />
    <node id="node_177" type="priority" x="-847.26" y="90.024" />
    <node id="node_178" type="priority" x="-398.36" y="93.819" />
    <node id="node_179" type="priority" x="-9138.7" y="-401.21" />
    <node id="node_180" type="priority" x="-735.05" y="-83.375" />
    <node id="node_181" type="priority" x="-248.92" y="-281.16" />
    <node id="node_182" type="priority" x="-121.05" y="24.211" />
    <node id="node_183" type="priority" x="-252.57" y="-278.22" />
    <node id="node_184" type="priority" x="-736.97" y="-116.04" />
    <node id="node_185" type="priority" x="-13270.0" y="-1106.1" />
    <node id="node_186" tl="GS_1052166282" type="traffic_light" x="-121.01" y="5.1124" />
    <node id="node_187" type="priority" x="-523.12" y="543.08" />
    <node id="node_188" type="priority" x="-594.73" y="575.45" />
    <node id="node_189" type="priority" x="-496.53" y="601.97" />
    <node id="node_190" type="priority" x="-426.87" y="625.8" />
    <node id="node_191" type="priority" x="-466.0" y="570.62" />
    <node id="node_192" type="priority" x="-474.09" y="575.95" />
    <node id="node_193" type="priority" x="-441.04" y="571.4" />
    <node id="node_194" type="priority" x="-519.71" y="571.3" />
    <node id="node_195" type="priority" x="-480.94" y="581.6" />
    <node id="node_196" type="priority" x="-396.06" y="625.81" />
    <node id="node_197" type="priority" x="-519.03" y="675.33" />
    <node id="node_198" type="priority" x="-498.02" y="591.61" />
    <node id="node_199" type="priority" x="-451.57" y="580.14" />
    <node id="node_200" type="priority" x="-528.43" y="560.26" />
    <node id="node_201" type="priority" x="-518.12" y="662.64" />
    <node id="node_202" type="priority" x="-492.1" y="548.14" />
    <node id="node_203" type="priority" x="-488.82" y="615.72" />
    <node id="node_204" type="priority" x="-494.61" y="565.74" />
    <node id="node_205" type="priority" x="-484.95" y="613.4" />
    <node id="node_206" type="priority" x="-510.7" y="654.59" />
    <node id="node_207" type="priority" x="-501.33" y="574.64" />
    <node id="node_208" type="priority" x="-519.78" y="607.94" />
    <node id="node_209" type="priority" x="-447.04" y="590.29" />
    <node id="node_210" type="priority" x="-492.52" y="575.48" />
    <node id="node_211" type="priority" x="-502.34" y="658.96" />
    <node id="node_212" type="priority" x="-503.91" y="629.65" />
    <node id="node_213" type="priority" x="-454.93" y="585.74" />
    <node id="node_214" type="priority" x="-503.59" y="586.03" />
    <node id="node_215" type="priority" x="-469.16" y="572.46" />
    <node id="node_216" type="priority" x="-483.34" y="554.78" />
    <node id="node_217" type="priority" x="-439.07" y="595.5" />
    <node id="node_218" type="priority" x="-436.41" y="566.78" />
    <node id="node_219" type="priority" x="-446.05" y="574.92" />
    <node id="node_220" type="priority" x="-462.84" y="565.91" />
    <node id="node_221" type="priority" x="-429.26" y="580.6" />
    <node id="node_222" type="priority" x="-462.1" y="611.11" />
    <node id="node_223" type="priority" x="-578.46" y="585.89" />
    <node id="node_224" type="priority" x="-506.92" y="582.5" />
    <node id="node_225" type="priority" x="-525.58" y="565.89" />
    <node id="node_226" type="priority" x="-425.45" y="575.83" />
    <node id="node_227" type="priority" x="-526.1" y="540.71" />
    <node id="node_228" type="priority" x="-390.03" y="614.63" />
    <node id="node_229" tl="GS_1061695272" type="traffic_light" x="-396.8" y="636.43" />
    <node id="node_230" type="priority" x="-507.98" y="644.01" />
    <node id="node_231" tl="GS_1061695290" type="traffic_light" x="-408.07" y="627.4" />
    <node id="node_232" type="priority" x="-489.41" y="557.62" />
    <node id="node_233" type="priority" x="-204.51" y="-129.05" />
    <node id="node_234" type="priority" x="-7.2275" y="-77.262" />
    <node id="node_235" type="priority" x="9.2152" y="-118.49" />
    <node id="node_236" type="priority" x="30.285" y="-119.14" />
    <node id="node_237" type="priority" x="-19.738" y="-76.662" />
    <node id="node_238" type="priority" x="0.21755" y="-107.81" />
    <node id="node_239" type="priority" x="-188.14" y="-146.56" />
    <node id="node_240" type="priority" x="5.0016" y="-91.838" />
    <node id="node_241" type="priority" x="-209.64" y="-129.13" />
    <node id="node_242" type="priority" x="-246.71" y="-153.23" />
    <node id="node_243" type="priority" x="-797.68" y="201.46" />
    <node id="node_244" type="priority" x="-748.54" y="158.22" />
    <node id="node_245" type="priority" x="-781.19" y="192.24" />
    <node id="node_246" type="priority" x="-710.42" y="163.39" />
    <node id="node_247" type="priority" x="-809.47" y="235.71" />
    <node id="node_248" type="priority" x="-804.04" y="178.63" />
    <node id="node_249" type="priority" x="-791.05" y="373.41" />
    <node id="node_250" type="priority" x="-785.75" y="180.32" />
    <node id="node_251" type="priority" x="-789.12" y="235.9" />
    <node id="node_252" type="priority" x="-779.1" y="193.94" />
    <node id="node_253" type="priority" x="-822.88" y="416.28" />
    <node id="node_254" type="priority" x="-904.85" y="167.96" />
    <node id="node_255" type="priority" x="-728.11" y="177.15" />
    <node id="node_256" type="priority" x="-832.35" y="191.58" />
    <node id="node_257" type="priority" x="-815.14" y="398.0" />
    <node id="node_258" type="priority" x="-794.91" y="163.32" />
    <node id="node_259" type="priority" x="-803.65" y="230.37" />
    <node id="node_260" type="priority" x="-779.51" y="363.78" />
    <node id="node_261" type="priority" x="-901.19" y="148.32" />
    <node id="node_262" type="priority" x="-813.92" y="194.51" />
    <node id="node_263" type="priority" x="-772.04" y="186.52" />
    <node id="node_264" type="priority" x="-747.53" y="151.59" />
    <node id="node_265" type="priority" x="-780.41" y="349.54" />
    <node id="node_266" type="priority" x="-805.06" y="384.61" />
    <node id="node_267" type="priority" x="-822.2" y="221.59" />
    <node id="node_268" type="priority" x="-790.04" y="185.35" />
    <node id="node_269" type="priority" x="-909.04" y="334.18" />
    <node id="node_270" type="priority" x="-797.85" y="200.98" />
    <node id="node_271" type="priority" x="-825.92" y="226.6" />
    <node id="node_272" type="priority" x="-798.57" y="169.71" />
    <node id="node_273" type="priority" x="-706.91" y="152.17" />
    <node id="node_274" type="priority" x="-781.97" y="175.96" />
    <node id="node_275" type="priority" x="-789.58" y="350.85" />
    <node id="node_276" type="priority" x="-808.78" y="226.97" />
    <node id="node_277" type="priority" x="-791.1" y="157.3" />
    <node id="node_278" type="priority" x="-800.93" y="343.73" />
    <node id="node_279" type="priority" x="-490.44" y="643.16" />
    <node id="node_280" type="priority" x="-1347.9" y="663.46" />
    <node id="node_281" type="priority" x="-635.14" y="878.42" />
    <node id="node_282" type="priority" x="-345.24" y="2724.8" />
    <node id="node_283" type="priority" x="-527.31" y="669.44" />
    <node id="node_284" type="priority" x="-512.28" y="680.61" />
    <node id="node_285" type="priority" x="-513.96" y="689.63" />
    <node id="node_286" type="priority" x="-504.66" y="703.56" />
    <node id="node_287" type="priority" x="-555.34" y="1167.2" />
    <node id="node_288" type="priority" x="-497.12" y="776.02" />
    <node id="node_289" type="priority" x="-501.54" y="624.74" />
    <node id="node_290" type="priority" x="-496.07" y="707.58" />
    <node id="node_291" type="priority" x="-468.41" y="730.2" />
    <node id="node_292" type="priority" x="-388.15" y="632.71" />
    <node id="node_293" tl="GS_1066742878" type="traffic_light" x="-399.4" y="635.03" />
    <node id="node_294" type="priority" x="-442.09" y="690.52" />
    <node id="node_295" tl="GS_1066742913" type="traffic_light" x="-421.05" y="642.45" />
    <node id="node_296" type="priority" x="-722.38" y="475.72" />
    <node id="node_297" type="priority" x="-730.01" y="488.69" />
    <node id="node_298" type="priority" x="-705.75" y="529.65" />
    <node id="node_299" type="priority" x="-727.32" y="483.46" />
    <node id="node_300" type="priority" x="-746.29" y="460.99" />
    <node id="node_301" type="priority" x="-709.11" y="523.82" />
    <node id="node_302" type="priority" x="-738.15" y="487.32" />
    <node id="node_303" type="priority" x="-732.9" y="475.03" />
    <node id="node_304" type="priority" x="-665.74" y="576.04" />
    <node id="node_305" type="priority" x="-675.58" y="566.96" />
    <node id="node_306" type="priority" x="-698.71" y="537.25" />
    <node id="node_307" type="priority" x="22.282" y="754.22" />
    <node id="node_308" type="priority" x="-127.48" y="759.36" />
    <node id="node_309" type="priority" x="-43.986" y="735.68" />
    <node id="node_310" type="priority" x="-64.458" y="751.24" />
    <node id="node_311" type="priority" x="-77.694" y="786.38" />
    <node id="node_312" type="priority" x="-123.37" y="748.06" />
    <node id="node_313" type="priority" x="-117.56" y="744.33" />
    <node id="node_314" type="priority" x="-68.648" y="779.3" />
    <node id="node_315" type="priority" x="-119.44" y="753.75" />
    <node id="node_316" type="priority" x="-46.301" y="727.84" />
    <node id="node_317" type="priority" x="-4.282" y="784.18" />
    <node id="node_318" type="priority" x="-90.86" y="781.59" />
    <node id="node_319" type="priority" x="24.859" y="762.45" />
    <node id="node_320" tl="GS_1067889614" type="traffic_light" x="14.901" y="739.77" />
    <node id="node_321" type="priority" x="20.044" y="747.0" />
    <node id="node_322" type="priority" x="-111.71" y="763.46" />
    <node id="node_323" type="priority" x="-4.5901" y="749.95" />
    <node id="node_324" type="priority" x="-68.008" y="792.41" />
    <node id="node_325" type="priority" x="-3.7911" y="742.56" />
    <node id="node_326" type="priority" x="-35.541" y="764.12" />
    <node id="node_327" type="priority" x="-32.872" y="779.99" />
    <node id="node_328" type="priority" x="-91.857" y="763.73" />
    <node id="node_329" type="priority" x="2.4942" y="754.8" />
    <node id="node_330" type="priority" x="-75.313" y="727.8" />
    <node id="node_331" type="priority" x="-70.029" y="783.11" />
    <node id="node_332" type="priority" x="-65.551" y="783.13" />
    <node id="node_333" type="priority" x="-85.958" y="781.23" />
    <node id="node_334" type="priority" x="-108.47" y="758.4" />
    <node id="node_335" type="priority" x="-86.584" y="776.64" />
    <node id="node_336" type="priority" x="-57.761" y="799.36" />
    <node id="node_337" type="priority" x="-65.651" y="733.64" />
    <node id="node_338" type="priority" x="-20.221" y="774.49" />
    <node id="node_339" type="priority" x="17.293" y="758.4" />
    <node id="node_340" type="priority" x="42.06" y="758.6" />
    <node id="node_341" type="priority" x="-122.54" y="760.74" />
    <node id="node_342" type="priority" x="-83.157" y="778.61" />
    <node id="node_343" type="priority" x="-29.159" y="779.03" />
    <node id="node_344" type="priority" x="15.868" y="767.92" />
    <node id="node_345" type="priority" x="-14.079" y="746.54" />
    <node id="node_346" type="priority" x="2.3879" y="745.03" />
    <node id="node_347" type="priority" x="26.081" y="756.9" />
    <node id="node_348" type="priority" x="-158.63" y="-703.66" />
    <node id="node_349" type="priority" x="-104.17" y="-672.05" />
    <node id="node_350" type="priority" x="-315.86" y="-688.83" />
    <node id="node_351" type="priority" x="-132.77" y="-631.68" />
    <node id="node_352" type="priority" x="-129.98" y="-624.08" />
    <node id="node_353" type="priority" x="-128.59" y="-693.18" />
    <node id="node_354" type="priority" x="-202.08" y="-711.38" />
    <node id="node_355" type="priority" x="-180.26" y="-735.85" />
    <node id="node_356" type="priority" x="-124.39" y="-681.53" />
    <node id="node_357" type="priority" x="-147.68" y="-680.91" />
    <node id="node_358" type="priority" x="-133.9" y="-704.74" />
    <node id="node_359" type="priority" x="-170.6" y="-739.38" />
    <node id="node_360" type="priority" x="-155.67" y="-697.1" />
    <node id="node_361" type="priority" x="-98.989" y="-666.58" />
    <node id="node_362" type="priority" x="-339.37" y="-656.26" />
    <node id="node_363" type="priority" x="-318.05" y="-660.31" />
    <node id="node_364" type="priority" x="-226.9" y="-588.94" />
    <node id="node_365" type="priority" x="-194.14" y="-600.97" />
    <node id="node_366" type="priority" x="-525.79" y="729.95" />
    <node id="node_367" type="priority" x="-525.54" y="732.61" />
    <node id="node_368" type="priority" x="-426.53" y="686.69" />
    <node id="node_369" type="priority" x="-413.15" y="657.81" />
    <node id="node_370" type="priority" x="-417.48" y="690.76" />
    <node id="node_371" type="priority" x="-434.73" y="693.85" />
    <node id="node_372" type="priority" x="-551.17" y="1643.3" />
    <node id="node_373" type="priority" x="-497.61" y="637.5" />
    <node id="node_374" type="priority" x="-491.28" y="611.44" />
    <node id="node_375" type="priority" x="-278.19" y="2019.0" />
    <node id="node_376" type="priority" x="-118.23" y="942.95" />
    <node id="node_377" type="priority" x="-286.61" y="2014.5" />
    <node id="node_378" type="priority" x="-342.77" y="1075.3" />
    <node id="node_379" type="priority" x="-293.4" y="2037.5" />
    <node id="node_380" type="priority" x="-499.48" y="627.81" />
    <node id="node_381" type="priority" x="1013.5" y="-782.62" />
    <node id="node_382" type="priority" x="1029.1" y="-792.88" />
    <node id="node_383" type="priority" x="1013.9" y="-780.7" />
    <node id="node_384" type="priority" x="1012.7" y="-779.6" />
    <node id="node_385" type="priority" x="877.17" y="-814.47" />
    <node id="node_386" type="priority" x="1017.7" y="-787.01" />
    <node id="node_387" type="priority" x="860.37" y="-820.21" />
    <node id="node_388" type="priority" x="856.21" y="-820.84" />
    <node id="node_389" type="priority" x="280.73" y="40.64" />
    <node id="node_390" type="priority" x="117.28" y="320.78" />
    <node id="node_391" type="priority" x="-1068.4" y="76.109" />
    <node id="node_392" type="priority" x="-1065.6" y="75.981" />
    <node id="node_393" type="priority" x="-1188.4" y="28.455" />
    <node id="node_394" type="priority" x="-949.52" y="-176.04" />
    <node id="node_395" type="priority" x="-959.91" y="-171.07" />
    <node id="node_396" type="priority" x="-1001.3" y="-153.56" />
    <node id="node_397" type="priority" x="-601.53" y="633.36" />
    <node id="node_398" type="priority" x="-637.35" y="615.22" />
    <node id="node_399" type="priority" x="-589.99" y="619.29" />
    <node id="node_400" type="priority" x="-597.68" y="617.41" />
    <node id="node_401" type="priority" x="-593.7" y="633.8" />
    <node id="node_402" type="priority" x="-653.86" y="621.75" />
    <node id="node_403" type="priority" x="-615.08" y="603.76" />
    <node id="node_404" type="priority" x="-611.42" y="614.69" />
    <node id="node_405" type="priority" x="-835.15" y="643.08" />
    <node id="node_406" type="priority" x="-681.75" y="618.47" />
    <node id="node_407" type="priority" x="-135.38" y="-583.42" />
    <node id="node_408" type="priority" x="-172.71" y="-525.61" />
    <node id="node_409" type="priority" x="-130.04" y="-574.95" />
    <node id="node_410" type="priority" x="-185.52" y="-524.01" />
    <node id="node_411" type="priority" x="-178.59" y="-531.76" />
    <node id="node_412" type="priority" x="-177.71" y="-542.14" />
    <node id="node_413" type="priority" x="476.82" y="-551.62" />
    <node id="node_414" type="priority" x="518.03" y="-567.39" />
    <node id="node_415" type="priority" x="59.399" y="201.23" />
    <node id="node_416" type="priority" x="168.12" y="246.87" />
    <node id="node_417" type="priority" x="610.82" y="-328.18" />
    <node id="node_418" type="priority" x="-247.4" y="594.74" />
    <node id="node_419" type="priority" x="-476.07" y="538.82" />
    <node id="node_420" tl="GS_1163010482" type="traffic_light" x="-237.47" y="590.08" />
    <node id="node_421" type="priority" x="5.4178" y="-55.53" />
    <node id="node_422" type="priority" x="172.21" y="-36.924" />
    <node id="node_423" type="priority" x="183.94" y="-108.6" />
    <node id="node_424" tl="GS_1166168346" type="traffic_light" x="191.81" y="-73.714" />
    <node id="node_425" type="priority" x="183.42" y="-130.21" />
    <node id="node_426" type="priority" x="207.41" y="-73.656" />
    <node id="node_427" type="priority" x="223.48" y="-123.48" />
    <node id="node_428" type="priority" x="190.86" y="-48.933" />
    <node id="node_429" type="priority" x="213.21" y="-110.14" />
    <node id="node_430" type="priority" x="170.96" y="-35.284" />
    <node id="node_431" tl="GS_1166168462" type="traffic_light" x="210.17" y="-98.764" />
    <node id="node_432" type="priority" x="184.94" y="-52.528" />
    <node id="node_433" tl="GS_1166168470" type="traffic_light" x="205.08" y="-118.73" />
    <node id="node_434" type="priority" x="175.45" y="-137.48" />
    <node id="node_435" tl="GS_1166168480" type="traffic_light" x="187.67" y="-103.16" />
    <node id="node_436" type="priority" x="191.79" y="-120.95" />
    <node id="node_437" type="priority" x="187.75" y="-94.518" />
    <node id="node_438" type="priority" x="213.72" y="-95.067" />
    <node id="node_439" type="priority" x="219.13" y="-76.542" />
    <node id="node_440" type="priority" x="180.81" y="-112.35" />
    <node id="node_441" type="priority" x="1.9227" y="-69.041" />
    <node id="node_442" type="priority" x="114.16" y="382.35" />