<?xml version='1.0' encoding='UTF-8'?>
<nodes xmlns:xsi="http://www.w3.org/2001/XMLSchema-instance" version="0.27" xsi:noNamespaceSchemaLocation="http://sumo.dlr.de/xsd/nodes_file.xsd">
    <location convBoundary="2208.92,522.44,21219.92,15402.46" netOffset="-224973.31,-2700122.99" origBoundary="54.286966,24.391306,54.609531,24.591038" projParameter="+proj=utm +zone=40 +ellps=WGS84 +datum=WGS84 +units=m +no_defs" />

    <node id="node_0" type="priority" x="933.47" y="-762.4" />
    <node id="node_1" type="priority" x="503.09" y="652.82" />
    <node id="node_2" type="priority" x="331.94" y="806.41" />
    <node id="node_3" tl="GS_1003388266" type="traffic_light" x="-160.62" y="-67.214" />
    <node id="node_4" type="priority" x="64.983" y="57.219" />
    <node id="node_5" type="priority" x="-168.34" y="-78.598" />
    <node id="node_6" tl="GS_1003388319" type="traffic_light" x="76.885" y="38.233" />
    <node id="node_7" type="priority" x="-128.8" y="384.42" />
    <node id="node_8" type="priority" x="-226.46" y="593.91" />
    <node id="node_9" type="priority" x="331.26" y="508.58" />
    <node id="node_10" type="priority" x="-1078.7" y="155.31" />
    <node id="node_11" type="priority" x="-1078.6" y="153.47" />
    <node id="node_12" type="priority" x="-1301.0" y="93.488" />
    <node id="node_13" type="priority" x="-1190.6" y="67.734" />
    <node id="node_14" type="unregulated" x="-1247.4" y="88.94" />
    <node id="node_15" type="unregulated" x="-1241.8" y="71.838" />
    <node id="node_16" type="priority" x="-1244.8" y="38.864" />
    <node id="node_17" type="priority" x="921.33" y="-639.64" />
    <node id="node_18" type="priority" x="913.88" y="-638.18" />
    <node id="node_19" type="priority" x="53.051" y="839.75" />
    <node id="node_20" type="priority" x="31.828" y="829.33" />
    <node id="node_21" type="priority" x="25.617" y="818.26" />
    <node id="node_22" type="priority" x="-206.54" y="382.04" />
    <node id="node_23" type="priority" x="35.779" y="845.34" />
    <node id="node_24" type="priority" x="-192.13" y="379.21" />
    <node id="node_25" type="priority" x="-340.49" y="345.12" />
    <node id="node_26" type="priority" x="-611.57" y="227.96" />
    <node id="node_27" type="priority" x="-1028.7" y="130.11" />
    <node id="node_28" type="priority" x="-754.38" y="189.68" />
    <node id="node_29" type="priority" x="-407.15" y="351.65" />
    <node id="node_30" type="priority" x="-353.63" y="341.91" />
    <node id="node_31" type="priority" x="-594.86" y="251.46" />
    <node id="node_32" type="priority" x="-420.72" y="366.05" />
    <node id="node_33" type="priority" x="-613.03" y="268.72" />
    <node id="node_34" type="priority" x="-415.75" y="361.85" />
    <node id="node_35" type="priority" x="-586.0" y="242.67" />
    <node id="node_36" type="priority" x="-169.72" y="419.24" />
    <node id="node_37" type="priority" x="-151.77" y="366.92" />
    <node id="node_38" type="priority" x="-171.08" y="394.73" />
    <node id="node_39" type="priority" x="-267.15" y="340.34" />
    <node id="node_40" type="priority" x="-137.44" y="384.69" />
    <node id="node_41" type="priority" x="-116.14" y="326.68" />
    <node id="node_42" type="priority" x="-148.26" y="396.82" />
    <node id="node_43" type="priority" x="-145.13" y="408.3" />
    <node id="node_44" type="priority" x="-179.46" y="384.5" />
    <node id="node_45" type="priority" x="-151.2" y="415.45" />
    <node id="node_46" type="priority" x="-244.81" y="342.98" />
    <node id="node_47" type="priority" x="-256.28" y="325.07" />
    <node id="node_48" type="priority" x="-248.45" y="341.86" />
    <node id="node_49" type="priority" x="-236.9" y="349.3" />
    <node id="node_50" type="priority" x="-247.05" y="329.1" />
    <node id="node_51" type="priority" x="-249.25" y="327.18" />
    <node id="node_52" type="priority" x="-237.08" y="336.57" />
    <node id="node_53" type="priority" x="-262.8" y="302.32" />
    <node id="node_54" type="priority" x="-361.58" y="535.52" />
    <node id="node_55" type="priority" x="-361.34" y="515.54" />
    <node id="node_56" type="priority" x="231.89" y="252.17" />
    <node id="node_57" type="priority" x="-803.84" y="-150.68" />
    <node id="node_58" type="priority" x="-752.31" y="-261.91" />
    <node id="node_59" type="priority" x="-828.08" y="-191.03" />
    <node id="node_60" type="priority" x="-726.24" y="-249.61" />
    <node id="node_61" type="priority" x="-812.92" y="-169.49" />
    <node id="node_62" type="priority" x="-831.13" y="-173.47" />
    <node id="node_63" type="priority" x="-867.68" y="-175.83" />
    <node id="node_64" type="priority" x="-791.62" y="-162.03" />
    <node id="node_65" type="priority" x="-858.93" y="-187.83" />
    <node id="node_66" type="priority" x="-757.25" y="-259.71" />
    <node id="node_67" type="priority" x="-852.96" y="-175.18" />
    <node id="node_68" type="priority" x="-779.97" y="-341.52" />
    <node id="node_69" type="priority" x="-858.61" y="-387.93" />
    <node id="node_70" type="priority" x="-890.0" y="-598.59" />
    <node id="node_71" type="priority" x="-897.93" y="-589.71" />
    <node id="node_72" type="priority" x="-733.39" y="-375.67" />
    <node id="node_73" type="priority" x="-920.33" y="-571.84" />
    <node id="node_74" type="priority" x="-784.72" y="-385.1" />
    <node id="node_75" type="priority" x="-792.98" y="-392.99" />
    <node id="node_76" type="unregulated" x="-659.27" y="-475.12" />
    <node id="node_77" type="priority" x="-871.58" y="-528.07" />
    <node id="node_78" type="priority" x="-837.81" y="-518.09" />
    <node id="node_79" type="priority" x="-912.91" y="-542.37" />
    <node id="node_80" type="unregulated" x="-641.12" y="-447.83" />
    <node id="node_81" type="priority" x="-880.32" y="-525.72" />
    <node id="node_82" type="priority" x="-925.91" y="-567.46" />
    <node id="node_83" type="priority" x="-912.85" y="-542.75" />
    <node id="node_84" type="priority" x="-888.23" y="-531.57" />
    <node id="node_85" type="priority" x="-907.91" y="-359.54" />
    <node id="node_86" type="priority" x="-907.09" y="-357.88" />
    <node id="node_87" type="priority" x="-915.7" y="-349.55" />
    <node id="node_88" type="priority" x="-896.38" y="-604.92" />
    <node id="node_89" type="priority" x="-881.45" y="-584.16" />
    <node id="node_90" type="priority" x="-895.58" y="-603.98" />
    <node id="node_91" type="priority" x="-872.15" y="-575.56" />
    <node id="node_92" type="priority" x="-916.54" y="-609.25" />
    <node id="node_93" type="priority" x="-851.53" y="-453.22" />
    <node id="node_94" type="priority" x="-470.87" y="-672.54" />
    <node id="node_95" type="priority" x="-581.97" y="-665.09" />
    <node id="node_96" type="priority" x="-570.68" y="-682.8" />
    <node id="node_97" type="priority" x="-517.3" y="-511.76" />
    <node id="node_98" type="priority" x="-412.74" y="-524.51" />
    <node id="node_99" type="priority" x="-469.44" y="-657.5" />
    <node id="node_100" type="priority" x="-549.31" y="-722.72" />
    <node id="node_101" type="priority" x="-577.45" y="-461.24" />
    <node id="node_102" type="priority" x="-437.82" y="-535.75" />
    <node id="node_103" type="priority" x="-456.43" y="-526.45" />
    <node id="node_104" type="priority" x="-467.45" y="-522.58" />
    <node id="node_105" type="priority" x="-575.55" y="-631.4" />
    <node id="node_106" type="priority" x="-589.37" y="-664.07" />
    <node id="node_107" type="priority" x="-458.69" y="-530.58" />
    <node id="node_108" type="priority" x="-447.58" y="-527.86" />
    <node id="node_109" type="priority" x="-547.31" y="-517.41" />
    <node id="node_110" type="priority" x="-473.34" y="-562.67" />
    <node id="node_111" type="priority" x="-388.0" y="-520.78" />
    <node id="node_112" type="priority" x="-578.68" y="-692.94" />
    <node id="node_113" type="priority" x="-560.6" y="-478.68" />
    <node id="node_114" type="priority" x="-549.07" y="-701.1" />
    <node id="node_115" type="priority" x="-579.43" y="-661.25" />
    <node id="node_116" type="priority" x="-598.49" y="-672.6" />
    <node id="node_117" type="priority" x="-391.5" y="-535.61" />
    <node id="node_118" type="priority" x="-576.18" y="-685.05" />
    <node id="node_119" type="priority" x="-552.67" y="-495.47" />
    <node id="node_120" type="priority" x="-521.88" y="-506.05" />
    <node id="node_121" type="priority" x="-586.88" y="-698.46" />
    <node id="node_122" type="priority" x="-477.63" y="-659.21" />
    <node id="node_123" type="priority" x="-550.61" y="-706.06" />
    <node id="node_124" type="priority" x="-485.24" y="-583.38" />
    <node id="node_125" type="priority" x="-533.94" y="-497.96" />
    <node id="node_126" type="priority" x="-542.87" y="-474.81" />
    <node id="node_127" type="priority" x="-555.41" y="-717.63" />
    <node id="node_128" type="priority" x="-407.95" y="-351.72" />
    <node id="node_129" type="priority" x="-400.14" y="-371.52" />
    <node id="node_130" type="priority" x="-406.7" y="-368.57" />
    <node id="node_131" type="priority" x="-397.91" y="-364.39" />
    <node id="node_132" type="priority" x="-571.91" y="-156.25" />
    <node id="node_133" tl="GS_1052165761" type="traffic_light" x="-117.6" y="-49.609" />
    <node id="node_134" type="priority" x="-807.76" y="-49.946" />
    <node id="node_135" type="priority" x="-372.01" y="-643.04" />
    <node id="node_136" type="priority" x="-161.92" y="-332.38" />
    <node id="node_137" type="priority" x="-162.38" y="-332.03" />
    <node id="node_138" type="priority" x="-377.08" y="78.068" />
    <node id="node_139" type="priority" x="-822.38" y="31.174" />
    <node id="node_140" type="priority" x="-567.79" y="-170.87" />
    <node id="node_141" type="priority" x="-810.81" y="4.4836" />
    <node id="node_142" type="priority" x="-763.49" y="33.064" />
    <node id="node_143" type="priority" x="-536.52" y="-192.2" />
    <node id="node_144" type="priority" x="-197.07" y="-337.86" />
    <node id="node_145" type="priority" x="-507.41" y="-150.45" />
    <node id="node_146" type="priority" x="-790.06" y="-28.478" />
    <node id="node_147" type="priority" x="-586.41" y="-129.67" />
    <node id="node_148" type="priority" x="-196.39" y="-128.19" />
    <node id="node_149" type="priority" x="-46.644" y="-335.06" />
    <node id="node_150" type="priority" x="-603.7" y="-151.67" />
    <node id="node_151" type="priority" x="-166.11" y="-353.58" />
    <node id="node_152" type="priority" x="-51.437" y="-321.08" />
    <node id="node_153" type="priority" x="-536.37" y="-163.06" />
    <node id="node_154" type="priority" x="-376.23" y="-664.5" />
    <node id="node_155" type="priority" x="-171.31" y="-325.35" />
    <node id="node_156" type="priority" x="-167.0" y="-324.29" />
    <node id="node_157" type="priority" x="-489.48" y="-173.65" />
    <node id="node_158" type="priority" x="-188.49" y="-333.85" />
    <node id="node_159" type="priority" x="-570.58" y="-146.03" />
    <node id="node_160" type="priority" x="-325.24" y="-570.41" />
    <node id="node_161" type="priority" x="-127.69" y="14.152" />
    <node id="node_162" type="priority" x="-785.75" y="-85.179" />
    <node id="node_163" type="priority" x="-527.07" y="-210.96" />
    <node id="node_164" type="priority" x="-796.23" y="-23.281" />
    <node id="node_165" type="priority" x="-837.89" y="-17.048" />
    <node id="node_166" type="priority" x="-942.6" y="-94.274" />
    <node id="node_167" type="priority" x="-107.77" y="-56.303" />
    <node id="node_168" type="priority" x="-821.43" y="-16.567" />
    <node id="node_169" type="priority" x="-177.27" y="-330.93" />
    <node id="node_170" type="priority" x="-767.37" y="43.708" />
    <node id="node_171" tl="GS_1052166069" type="traffic_light" x="-134.42" y="-2.124" />
    <node id="node_172" type="priority" x="-454.38" y="-680.53" />
    <node id="node_173" type="priority" x="-801.39" y="2.764" />
    <node id="node_174" type="priority" x="-399.15" y="-642.91" />
    <node id="node_175" type="priority" x="-531.9" y="-172.09" />
    <node id="node_176" type="priority" x="-607.63" y="-152.37" />
    <node id="node_177" type="priority" x="-843.67" y="33.852" />
    <node id="node_178" type="priority" x="-383.75" y="69.648" />
    <node id="node_179" type="priority" x="-376.23" y="-664.66" />
    <node id="node_180" type="priority" x="-576.21" y="-130.94" />
    <node id="node_181" type="priority" x="-166.21" y="-346.94" />
    <node id="node_182" type="priority" x="-159.52" y="-37.324" />
    <node id="node_183" type="priority" x="-169.44" y="-345.4" />
    <node id="node_184" type="priority" x="-582.67" y="-155.2" />
    <node id="node_185" type="priority" x="-454.56" y="-680.6" />
    <node id="node_186" tl="GS_1052166282" type="traffic_light" x="-161.83" y="-27.74" />
    <node id="node_187" type="priority" x="-440.31" y="527.12" />
    <node id="node_188" type="priority" x="-384.09" y="509.98" />
    <node id="node_189" type="priority" x="-425.74" y="567.01" />
    <node id="node_190" type="priority" x="-291.24" y="508.55" />
    <node id="node_191" type="priority" x="-436.24" y="681.81" />
    <node id="node_192" type="priority" x="-416.51" y="625.49" />
    <node id="node_193" type="priority" x="-379.0" y="629.33" />
    <node id="node_194" type="priority" x="-413.16" y="537.26" />
    <node id="node_195" type="priority" x="-414.51" y="599.22" />
    <node id="node_196" type="priority" x="-264.72" y="512.8" />
    <node id="node_197" type="priority" x="-285.05" y="416.66" />
    <node id="node_198" type="priority" x="-422.0" y="561.39" />
    <node id="node_199" type="priority" x="-355.03" y="580.89" />
    <node id="node_200" type="priority" x="-353.33" y="541.88" />
    <node id="node_201" type="priority" x="-285.77" y="407.21" />
    <node id="node_202" type="priority" x="-525.54" y="648.07" />
    <node id="node_203" type="priority" x="-360.52" y="560.36" />
    <node id="node_204" type="priority" x="-480.56" y="676.14" />
    <node id="node_205" type="priority" x="-362.92" y="565.29" />
    <node id="node_206" type="priority" x="-302.73" y="418.71" />
    <node id="node_207" type="priority" x="-443.46" y="607.38" />
    <node id="node_208" type="priority" x="-446.01" y="612.36" />
    <node id="node_209" type="priority" x="-338.87" y="561.81" />
    <node id="node_210" type="priority" x="-424.73" y="581.02" />
    <node id="node_211" type="priority" x="-306.86" y="434.19" />
    <node id="node_212" type="priority" x="-345.14" y="516.13" />
    <node id="node_213" type="priority" x="-345.3" y="567.08" />
    <node id="node_214" type="priority" x="-417.05" y="556.59" />
    <node id="node_215" type="priority" x="-418.49" y="648.86" />
    <node id="node_216" type="priority" x="-518.69" y="670.91" />
    <node id="node_217" type="priority" x="-329.48" y="553.11" />
    <node id="node_218" type="priority" x="-381.29" y="642.35" />
    <node id="node_219" type="priority" x="-364.38" y="601.94" />
    <node id="node_220" type="priority" x="-445.68" y="687.54" />
    <node id="node_221" type="priority" x="-367.72" y="634.0" />
    <node id="node_222" type="priority" x="-317.89" y="519.41" />
    <node id="node_223" type="priority" x="-393.77" y="550.55" />
    <node id="node_224" type="priority" x="-415.37" y="552.21" />
    <node id="node_225" type="priority" x="-408.32" y="533.23" />
    <node id="node_226" type="priority" x="-375.83" y="652.15" />
    <node id="node_227" type="priority" x="-444.03" y="526.64" />
    <node id="node_228" type="priority" x="-300.71" y="548.77" />
    <node id="node_229" tl="GS_1061695272" type="traffic_light" x="-259.01" y="504.73" />
    <node id="node_230" type="priority" x="-316.7" y="423.33" />
    <node id="node_231" tl="GS_1061695290" type="traffic_light" x="-269.13" y="498.81" />
    <node id="node_232" type="priority" x="-510.66" y="665.96" />
    <node id="node_233" type="priority" x="-262.32" y="-163.12" />
    <node id="node_234" type="priority" x="3.6964" y="-90.228" />
    <node id="node_235" type="priority" x="20.829" y="-173.42" />
    <node id="node_236" type="priority" x="22.715" y="-226.33" />
    <node id="node_237" type="priority" x="-4.2589" y="-90.781" />
    <node id="node_238" type="priority" x="17.428" y="-162.3" />
    <node id="node_239" type="priority" x="-181.59" y="-244.22" />
    <node id="node_240" type="priority" x="12.196" y="-141.4" />
    <node id="node_241" type="priority" x="-260.62" y="-154.74" />
    <node id="node_242" type="priority" x="-260.96" y="-186.49" />
    <node id="node_243" type="priority" x="-953.65" y="228.05" />
    <node id="node_244" type="priority" x="-601.34" y="86.11" />
    <node id="node_245" type="priority" x="-1023.8" y="261.05" />
    <node id="node_246" type="priority" x="-579.0" y="74.173" />
    <node id="node_247" type="priority" x="-894.96" y="283.34" />
    <node id="node_248" type="priority" x="-948.48" y="203.9" />
    <node id="node_249" type="priority" x="-662.88" y="234.96" />
    <node id="node_250" type="priority" x="-987.38" y="241.2" />
    <node id="node_251" type="priority" x="-900.11" y="278.21" />
    <node id="node_252" type="priority" x="-1021.6" y="259.73" />
    <node id="node_253" type="priority" x="-684.38" y="222.87" />
    <node id="node_254" type="priority" x="-778.91" y="51.674" />
    <node id="node_255" type="priority" x="-607.81" y="104.48" />
    <node id="node_256" type="priority" x="-963.03" y="251.43" />
    <node id="node_257" type="priority" x="-684.14" y="210.86" />
    <node id="node_258" type="priority" x="-983.1" y="225.78" />
    <node id="node_259" type="priority" x="-906.16" y="288.59" />
    <node id="node_260" type="priority" x="-677.02" y="250.42" />
    <node id="node_261" type="priority" x="-790.69" y="57.658" />
    <node id="node_262" type="priority" x="-942.8" y="220.35" />
    <node id="node_263" type="priority" x="-1012.5" y="253.83" />
    <node id="node_264" type="priority" x="-604.25" y="90.764" />
    <node id="node_265" type="priority" x="-668.31" y="251.09" />
    <node id="node_266" type="priority" x="-675.44" y="234.7" />
    <node id="node_267" type="priority" x="-874.49" y="259.99" />
    <node id="node_268" type="priority" x="-989.07" y="233.2" />
    <node id="node_269" type="priority" x="-695.1" y="190.56" />
    <node id="node_270" type="priority" x="-954.05" y="227.44" />
    <node id="node_271" type="priority" x="-844.24" y="235.42" />
    <node id="node_272" type="priority" x="-971.0" y="220.64" />
    <node id="node_273" type="priority" x="-576.62" y="66.799" />
    <node id="node_274" type="priority" x="-995.99" y="240.97" />
    <node id="node_275" type="priority" x="-667.14" y="217.38" />
    <node id="node_276" type="priority" x="-911.84" y="293.21" />
    <node id="node_277" type="priority" x="-987.3" y="217.02" />
    <node id="node_278" type="priority" x="-672.85" y="203.1" />
    <node id="node_279" type="priority" x="-323.75" y="449.34" />
    <node id="node_280" type="priority" x="-299.65" y="484.17" />
    <node id="node_281" type="priority" x="-288.26" y="460.17" />
    <node id="node_282" type="priority" x="-277.61" y="480.29" />
    <node id="node_283" type="priority" x="-312.64" y="407.27" />
    <node id="node_284" type="priority" x="-285.37" y="425.28" />
    <node id="node_285" type="priority" x="-278.2" y="427.88" />
    <node id="node_286" type="priority" x="-267.81" y="427.6" />
    <node id="node_287" type="priority" x="-273.59" y="463.96" />
    <node id="node_288" type="priority" x="-256.35" y="441.1" />
    <node id="node_289" type="priority" x="-339.51" y="508.84" />
    <node id="node_290" type="priority" x="-263.22" y="424.19" />
    <node id="node_291" type="priority" x="-250.98" y="427.96" />
    <node id="node_292" type="priority" x="-249.3" y="486.64" />
    <node id="node_293" tl="GS_1066742878" type="traffic_light" x="-243.41" y="486.76" />
    <node id="node_294" type="priority" x="-267.25" y="492.22" />
    <node id="node_295" tl="GS_1066742913" type="traffic_light" x="-270.0" y="513.58" />
    <node id="node_296" type="priority" x="-553.66" y="287.24" />
    <node id="node_297" type="priority" x="-521.23" y="279.95" />
    <node id="node_298" type="priority" x="-453.55" y="293.45" />
    <node id="node_299" type="priority" x="-540.62" y="282.66" />
    <node id="node_300" type="priority" x="-536.22" y="255.99" />
    <node id="node_301" type="priority" x="-460.33" y="291.61" />
    <node id="node_302" type="priority" x="-502.75" y="302.92" />
    <node id="node_303" type="priority" x="-539.6" y="271.52" />
    <node id="node_304" type="priority" x="-383.01" y="306.18" />
    <node id="node_305" type="priority" x="-397.53" y="312.79" />
    <node id="node_306" type="priority" x="-429.28" y="326.03" />
    <node id="node_307" type="priority" x="23.931" y="790.31" />
    <node id="node_308" type="priority" x="-128.96" y="645.45" />
    <node id="node_309" type="priority" x="-131.98" y="795.72" />
    <node id="node_310" type="priority" x="-56.768" y="720.39" />
    <node id="node_311" type="priority" x="-160.24" y="829.78" />
    <node id="node_312" type="priority" x="-157.76" y="647.64" />
    <node id="node_313" type="priority" x="-95.449" y="608.41" />
    <node id="node_314" type="priority" x="-139.65" y="811.55" />
    <node id="node_315" type="priority" x="-150.65" y="654.1" />
    <node id="node_316" type="priority" x="-114.18" y="756.76" />
    <node id="node_317" type="priority" x="-16.894" y="773.02" />
    <node id="node_318" type="priority" x="-166.18" y="763.45" />
    <node id="node_319" type="priority" x="25.807" y="798.41" />
    <node id="node_320" tl="GS_1067889614" type="traffic_light" x="5.8708" y="805.02" />
    <node id="node_321" type="priority" x="29.789" y="785.59" />
    <node id="node_322" type="priority" x="-150.78" y="669.89" />
    <node id="node_323" type="priority" x="-87.357" y="898.62" />
    <node id="node_324" type="priority" x="-76.48" y="726.08" />
    <node id="node_325" type="priority" x="-27.247" y="801.96" />
    <node id="node_326" type="priority" x="-24.811" y="739.89" />
    <node id="node_327" type="priority" x="-29.123" y="750.06" />
    <node id="node_328" type="priority" x="-75.147" y="641.28" />
    <node id="node_329" type="priority" x="3.015" y="787.31" />
    <node id="node_330" type="priority" x="-77.927" y="714.24" />
    <node id="node_331" type="priority" x="-145.37" y="797.59" />
    <node id="node_332" type="priority" x="-98.809" y="742.42" />
    <node id="node_333" type="priority" x="-175.35" y="748.65" />
    <node id="node_334" type="priority" x="-82.053" y="605.07" />
    <node id="node_335" type="priority" x="-162.76" y="769.64" />
    <node id="node_336" type="priority" x="-58.156" y="736.13" />
    <node id="node_337" type="priority" x="-92.351" y="725.76" />
    <node id="node_338" type="priority" x="-6.8998" y="769.74" />
    <node id="node_339" type="priority" x="-1.1259" y="803.19" />
    <node id="node_340" type="priority" x="31.748" y="818.65" />
    <node id="node_341" type="priority" x="-133.54" y="655.23" />
    <node id="node_342" type="priority" x="-64.417" y="648.13" />
    <node id="node_343" type="priority" x="-18.362" y="760.22" />
    <node id="node_344" type="priority" x="0.059992" y="778.24" />
    <node id="node_345" type="priority" x="-12.557" y="757.31" />
    <node id="node_346" type="priority" x="-11.688" y="823.45" />
    <node id="node_347" type="priority" x="27.039" y="791.71" />
    <node id="node_348" type="priority" x="-116.65" y="-843.88" />
    <node id="node_349" type="priority" x="-100.95" y="-749.29" />
    <node id="node_350" type="priority" x="-366.68" y="-790.55" />
    <node id="node_351" type="priority" x="-107.07" y="-692.45" />
    <node id="node_352" type="priority" x="-107.12" y="-684.2" />
    <node id="node_353" type="priority" x="-119.79" y="-794.13" />
    <node id="node_354" type="priority" x="-157.92" y="-843.43" />
    <node id="node_355" type="priority" x="-133.92" y="-876.58" />
    <node id="node_356" type="priority" x="-112.86" y="-784.33" />
    <node id="node_357" type="priority" x="-107.15" y="-817.31" />
    <node id="node_358" type="priority" x="-137.75" y="-814.49" />
    <node id="node_359" type="priority" x="-122.01" y="-883.21" />
    <node id="node_360" type="priority" x="-113.53" y="-837.42" />
    <node id="node_361" type="priority" x="-96.754" y="-732.6" />
    <node id="node_362" type="priority" x="-331.99" y="-702.36" />
    <node id="node_363" type="priority" x="-304.97" y="-709.3" />
    <node id="node_364" type="priority" x="-246.7" y="-738.74" />
    <node id="node_365" type="priority" x="-252.46" y="-812.51" />
    <node id="node_366" type="priority" x="-268.26" y="441.34" />
    <node id="node_367" type="priority" x="-266.97" y="439.48" />
    <node id="node_368" type="priority" x="-232.34" y="439.39" />
    <node id="node_369" type="priority" x="-238.49" y="464.25" />
    <node id="node_370" type="priority" x="-239.89" y="397.88" />
    <node id="node_371" type="priority" x="-231.79" y="415.08" />
    <node id="node_372" type="priority" x="-284.21" y="475.42" />
    <node id="node_373" type="priority" x="-334.4" y="460.14" />
    <node id="node_374" type="priority" x="-376.87" y="596.68" />
    <node id="node_375" type="priority" x="-395.13" y="1858.3" />
    <node id="node_376" type="priority" x="-447.48" y="853.24" />
    <node id="node_377" type="priority" x="-405.57" y="1866.0" />
    <node id="node_378" type="priority" x="-482.46" y="929.91" />
    <node id="node_379" type="priority" x="-379.23" y="1883.2" />
    <node id="node_380" type="priority" x="-397.78" y="644.54" />
    <node id="node_381" type="priority" x="655.1" y="-757.69" />
    <node id="node_382" type="priority" x="653.12" y="-773.67" />
    <node id="node_383" type="priority" x="657.96" y="-762.9" />
    <node id="node_384" type="priority" x="657.97" y="-762.15" />
    <node id="node_385" type="priority" x="637.8" y="-723.77" />
    <node id="node_386" type="priority" x="653.8" y="-763.9" />
    <node id="node_387" type="priority" x="637.55" y="-721.97" />
    <node id="node_388" type="priority" x="637.57" y="-722.38" />
    <node id="node_389" type="priority" x="246.5" y="183.1" />
    <node id="node_390" type="priority" x="98.202" y="274.65" />
    <node id="node_391" type="priority" x="-919.22" y="19.665" />
    <node id="node_392" type="priority" x="-925.59" y="15.607" />
    <node id="node_393" type="priority" x="-1047.5" y="50.428" />
    <node id="node_394" type="priority" x="-869.27" y="-299.01" />
    <node id="node_395" type="priority" x="-874.33" y="-292.43" />
    <node id="node_396" type="priority" x="-891.04" y="-263.32" />
    <node id="node_397" type="priority" x="-332.63" y="328.54" />
    <node id="node_398" type="priority" x="-381.33" y="341.79" />
    <node id="node_399" type="priority" x="-344.03" y="349.43" />
    <node id="node_400" type="priority" x="-349.22" y="353.25" />
    <node id="node_401" type="priority" x="-331.87" y="338.75" />
    <node id="node_402" type="priority" x="-378.95" y="354.77" />
    <node id="node_403" type="priority" x="-367.95" y="368.16" />
    <node id="node_404" type="priority" x="-372.35" y="364.07" />
    <node id="node_405" type="priority" x="-444.66" y="434.82" />
    <node id="node_406" type="priority" x="-425.59" y="413.77" />
    <node id="node_407" type="priority" x="-128.64" y="-636.06" />
    <node id="node_408" type="priority" x="-181.91" y="-553.72" />
    <node id="node_409" type="priority" x="-148.83" y="-622.2" />
    <node id="node_410" type="priority" x="-193.13" y="-557.37" />
    <node id="node_411" type="priority" x="-175.48" y="-564.0" />
    <node id="node_412" type="priority" x="-178.22" y="-574.6" />
    <node id="node_413" type="priority" x="384.17" y="-557.79" />
    <node id="node_414" type="priority" x="418.15" y="-521.13" />
    <node id="node_415" type="priority" x="196.29" y="243.66" />
    <node id="node_416" type="priority" x="145.94" y="242.4" />
    <node id="node_417" type="priority" x="725.92" y="-131.02" />
    <node id="node_418" type="priority" x="-122.26" y="560.77" />
    <node id="node_419" type="priority" x="-476.89" y="564.85" />
    <node id="node_420" tl="GS_1163010482" type="traffic_light" x="-114.67" y="555.1" />
    <node id="node_421" type="priority" x="-1.2921" y="-57.731" />
    <node id="node_422" type="priority" x="206.95" y="71.427" />
    <node id="node_423" type="priority" x="228.98" y="19.853" />
    <node id="node_424" tl="GS_1166168346" type="traffic_light" x="214.96" y="46.93" />
    <node id="node_425" type="priority" x="230.0" y="-14.675" />
    <node id="node_426" type="priority" x="224.55" y="43.583" />
    <node id="node_427" type="priority" x="266.02" y="10.16" />
    <node id="node_428" type="priority" x="214.67" y="61.635" />
    <node id="node_429" type="priority" x="252.63" y="13.094" />
    <node id="node_430" type="priority" x="205.34" y="72.609" />
    <node id="node_431" tl="GS_1166168462" type="traffic_light" x="242.46" y="18.761" />
    <node id="node_432" type="priority" x="211.33" y="61.311" />
    <node id="node_433" tl="GS_1166168470" type="traffic_light" x="251.69" y="-3.3914" />
    <node id="node_434" type="priority" x="221.98" y="-10.2" />
    <node id="node_435" tl="GS_1166168480" type="traffic_light" x="226.85" y="23.405" />
    <node id="node_436" type="priority" x="235.81" y="-7.4877" />
    <node id="node_437" type="priority" x="213.34" y="17.723" />
    <node id="node_438" type="priority" x="232.94" y="20.224" />
    <node id="node_439" type="priority" x="233.18" y="52.227" />
    <node id="node_440" type="priority" x="228.73" y="16.887" />
    <node id="node_441" type="priority" x="-9.7992" y="-49.393" />
    <node id="node_442" type="priority" x="211.01" y="366.97" />