<?xml version='1.0' encoding='UTF-8'?>
<nodes xmlns:xsi="http://www.w3.org/2001/XMLSchema-instance" version="0.27" xsi:noNamespaceSchemaLocation="http://sumo.dlr.de/xsd/nodes_file.xsd">
    <location convBoundary="2208.92,522.44,21219.92,15402.46" netOffset="-224973.31,-2700122.99" origBoundary="54.286966,24.391306,54.609531,24.591038" projParameter="+proj=utm +zone=40 +ellps=WGS84 +datum=WGS84 +units=m +no_defs" />

    <node id="node_0" type="priority" x="25161.0" y="-15448.0" />
    <node id="node_1" type="priority" x="8488.4" y="12914.0" />
    <node id="node_2" type="priority" x="4029.3" y="13811.0" />
    <node id="node_3" tl="GS_1003388266" type="traffic_light" x="-3623.4" y="294.85" />
    <node id="node_4" type="priority" x="274.91" y="-113.52" />
    <node id="node_5" type="priority" x="-3738.4" y="307.32" />
    <node id="node_6" tl="GS_1003388319" type="traffic_light" x="442.0" y="-108.47" />
    <node id="node_7" type="priority" x="-8335.1" y="15722.0" />
    <node id="node_8" type="priority" x="-6134.7" y="15747.0" />
    <node id="node_9" type="priority" x="1662.0" y="9896.4" />
    <node id="node_10" type="priority" x="-26882.0" y="4665.6" />
    <node id="node_11" type="priority" x="-26825.0" y="4596.2" />
    <node id="node_12" type="priority" x="-31866.0" y="53.717" />
    <node id="node_13" type="priority" x="-28736.0" y="847.79" />
    <node id="node_14" type="unregulated" x="-30155.0" y="1686.9" />
    <node id="node_15" type="unregulated" x="-29860.0" y="1449.4" />
    <node id="node_16" type="priority" x="-30857.0" y="217.18" />
    <node id="node_17" type="priority" x="30157.0" y="-12193.0" />
    <node id="node_18" type="priority" x="30065.0" y="-12252.0" />
    <node id="node_19" type="priority" x="-692.04" y="14676.0" />
    <node id="node_20" type="priority" x="-857.82" y="14655.0" />
    <node id="node_21" type="priority" x="-942.86" y="14709.0" />
    <node id="node_22" type="priority" x="-10412.0" y="14545.0" />
    <node id="node_23" type="priority" x="-646.47" y="14822.0" />
    <node id="node_24" type="priority" x="-10420.0" y="14680.0" />
    <node id="node_25" type="priority" x="-13513.0" y="12499.0" />
    <node id="node_26" type="priority" x="-15296.0" y="8733.2" />
    <node id="node_27" type="priority" x="-26057.0" y="4273.2" />
    <node id="node_28" type="priority" x="-17071.0" y="6442.0" />
    <node id="node_29" type="priority" x="-14425.0" y="11672.0" />
    <node id="node_30" type="priority" x="-13679.0" y="12461.0" />
    <node id="node_31" type="priority" x="-15157.0" y="9027.7" />
    <node id="node_32" type="priority" x="-14311.0" y="11626.0" />
    <node id="node_33" type="priority" x="-14999.0" y="8857.1" />
    <node id="node_34" type="priority" x="-14342.0" y="11713.0" />
    <node id="node_35" type="priority" x="-15286.0" y="8999.0" />
    <node id="node_36" type="priority" x="-8511.4" y="14552.0" />
    <node id="node_37" type="priority" x="-8362.8" y="16415.0" />
    <node id="node_38" type="priority" x="-9028.9" y="14896.0" />
    <node id="node_39" type="priority" x="-11445.0" y="14299.0" />
    <node id="node_40" type="priority" x="-8724.0" y="15551.0" />
    <node id="node_41" type="priority" x="-9313.6" y="16071.0" />
    <node id="node_42" type="priority" x="-8817.9" y="14934.0" />
    <node id="node_43" type="priority" x="-8616.6" y="15366.0" />
    <node id="node_44" type="priority" x="-9639.5" y="15002.0" />
    <node id="node_45" type="priority" x="-8411.1" y="14617.0" />
    <node id="node_46" type="priority" x="-11939.0" y="14151.0" />
    <node id="node_47" type="priority" x="-12146.0" y="14146.0" />
    <node id="node_48" type="priority" x="-11962.0" y="14117.0" />
    <node id="node_49" type="priority" x="-11869.0" y="14218.0" />
    <node id="node_50" type="priority" x="-12060.0" y="14071.0" />
    <node id="node_51" type="priority" x="-12092.0" y="14073.0" />
    <node id="node_52" type="priority" x="-11971.0" y="14224.0" />
    <node id="node_53" type="priority" x="-12310.0" y="13976.0" />
    <node id="node_54" type="priority" x="-11532.0" y="11389.0" />
    <node id="node_55" type="priority" x="-11631.0" y="11383.0" />
    <node id="node_56" type="priority" x="5773.1" y="5365.3" />
    <node id="node_57" type="priority" x="-13881.0" y="-2186.2" />
    <node id="node_58" type="priority" x="-13009.0" y="-2215.8" />
    <node id="node_59" type="priority" x="-13606.0" y="-2308.7" />
    <node id="node_60" type="priority" x="-12973.0" y="-2071.1" />
    <node id="node_61" type="priority" x="-14014.0" y="-2468.8" />
    <node id="node_62" type="priority" x="-14055.0" y="-2372.3" />
    <node id="node_63" type="priority" x="-13863.0" y="-2564.2" />
    <node id="node_64" type="priority" x="-13686.0" y="-2154.8" />
    <node id="node_65" type="priority" x="-13698.0" y="-2473.3" />
    <node id="node_66" type="priority" x="-13151.0" y="-2187.3" />
    <node id="node_67" type="priority" x="-13938.0" y="-2514.5" />
    <node id="node_68" type="priority" x="-15135.0" y="-3856.0" />
    <node id="node_69" type="priority" x="-14456.0" y="-3240.8" />
    <node id="node_70" type="priority" x="-17116.0" y="-6969.3" />
    <node id="node_71" type="priority" x="-17459.0" y="-7074.7" />
    <node id="node_72" type="priority" x="-16092.0" y="-5057.7" />
    <node id="node_73" type="priority" x="-18007.0" y="-7057.0" />
    <node id="node_74" type="priority" x="-16329.0" y="-4630.8" />
    <node id="node_75" type="priority" x="-16620.0" y="-4849.6" />
    <node id="node_76" type="unregulated" x="-14286.0" y="-7179.3" />
    <node id="node_77" type="priority" x="-17263.0" y="-6454.2" />
    <node id="node_78" type="priority" x="-17139.0" y="-5940.3" />
    <node id="node_79" type="priority" x="-17862.0" y="-6707.4" />
    <node id="node_80" type="unregulated" x="-14195.0" y="-7054.1" />
    <node id="node_81" type="priority" x="-17390.0" y="-6467.3" />
    <node id="node_82" type="priority" x="-18024.0" y="-6964.9" />
    <node id="node_83" type="priority" x="-17732.0" y="-6777.8" />
    <node id="node_84" type="priority" x="-17496.0" y="-6517.3" />
    <node id="node_85" type="priority" x="-21295.0" y="-5675.4" />
    <node id="node_86" type="priority" x="-20819.0" y="-5026.7" />
    <node id="node_87" type="priority" x="-20913.0" y="-5245.9" />
    <node id="node_88" type="priority" x="-17420.0" y="-7560.1" />
    <node id="node_89" type="priority" x="-17052.0" y="-6802.3" />
    <node id="node_90" type="priority" x="-17142.0" y="-7081.4" />
    <node id="node_91" type="priority" x="-17639.0" y="-7529.4" />
    <node id="node_92" type="priority" x="-17758.0" y="-7864.9" />
    <node id="node_93" type="priority" x="-16930.0" y="-5079.4" />
    <node id="node_94" type="priority" x="-9728.9" y="-7190.8" />
    <node id="node_95" type="priority" x="-10586.0" y="-6254.3" />
    <node id="node_96" type="priority" x="-10453.0" y="-6560.3" />
    <node id="node_97" type="priority" x="-12189.0" y="-6419.0" />
    <node id="node_98" type="priority" x="-10332.0" y="-7889.6" />
    <node id="node_99" type="priority" x="-9747.6" y="-7256.5" />
    <node id="node_100" type="priority" x="-10098.0" y="-6889.7" />
    <node id="node_101" type="priority" x="-12679.0" y="-6156.0" />
    <node id="node_102" type="priority" x="-10577.0" y="-7963.4" />
    <node id="node_103" type="priority" x="-10906.0" y="-7706.2" />
    <node id="node_104" type="priority" x="-10985.0" y="-7689.4" />
    <node id="node_105" type="priority" x="-10837.0" y="-6062.3" />
    <node id="node_106" type="priority" x="-10572.0" y="-6191.1" />
    <node id="node_107" type="priority" x="-10881.0" y="-7669.9" />
    <node id="node_108" type="priority" x="-10885.0" y="-7775.3" />
    <node id="node_109" type="priority" x="-12438.0" y="-6433.5" />
    <node id="node_110" type="priority" x="-10603.0" y="-7581.1" />
    <node id="node_111" type="priority" x="-9169.0" y="-7158.3" />
    <node id="node_112" type="priority" x="-10398.0" y="-6461.4" />
    <node id="node_113" type="priority" x="-12540.0" y="-6313.6" />
    <node id="node_114" type="priority" x="-10133.0" y="-6992.0" />
    <node id="node_115" type="priority" x="-10612.0" y="-6281.3" />
    <node id="node_116" type="priority" x="-10502.0" y="-6261.9" />
    <node id="node_117" type="priority" x="-9188.4" y="-7049.6" />
    <node id="node_118" type="priority" x="-10419.0" y="-6539.3" />
    <node id="node_119" type="priority" x="-12276.0" y="-6139.5" />
    <node id="node_120" type="priority" x="-12208.0" y="-6294.6" />
    <node id="node_121" type="priority" x="-10338.0" y="-6575.8" />
    <node id="node_122" type="priority" x="-9839.7" y="-7475.9" />
    <node id="node_123" type="priority" x="-10104.0" y="-6964.7" />
    <node id="node_124" type="priority" x="-10447.0" y="-7517.1" />
    <node id="node_125" type="priority" x="-12332.0" y="-6431.1" />
    <node id="node_126" type="priority" x="-12069.0" y="-5991.5" />
    <node id="node_127" type="priority" x="-10030.0" y="-6972.4" />
    <node id="node_128" type="priority" x="-8844.2" y="-2685.0" />
    <node id="node_129" type="priority" x="-8922.9" y="-3089.4" />
    <node id="node_130" type="priority" x="-8987.8" y="-3210.2" />
    <node id="node_131" type="priority" x="-8855.8" y="-2861.1" />
    <node id="node_132" type="priority" x="-12092.0" y="-1592.7" />
    <node id="node_133" tl="GS_1052165761" type="traffic_light" x="-3306.0" y="463.04" />
    <node id="node_134" type="priority" x="-15577.0" y="408.19" />
    <node id="node_135" type="priority" x="-6689.8" y="-3506.9" />
    <node id="node_136" type="priority" x="-5759.2" y="-4891.8" />
    <node id="node_137" type="priority" x="-5805.7" y="-4835.1" />
    <node id="node_138" type="priority" x="-7913.9" y="2082.5" />
    <node id="node_139" type="priority" x="-16013.0" y="1461.3" />
    <node id="node_140" type="priority" x="-11811.0" y="-1417.3" />
    <node id="node_141" type="priority" x="-15542.0" y="740.56" />
    <node id="node_142" type="priority" x="-17401.0" y="3717.4" />
    <node id="node_143" type="priority" x="-10554.0" y="9.4162" />
    <node id="node_144" type="priority" x="-6505.1" y="-4858.6" />
    <node id="node_145" type="priority" x="-10443.0" y="336.42" />
    <node id="node_146" type="priority" x="-15359.0" y="453.56" />
    <node id="node_147" type="priority" x="-11976.0" y="-1239.1" />
    <node id="node_148" type="priority" x="-3835.3" y="-525.25" />
    <node id="node_149" type="priority" x="-3771.7" y="-5342.0" />
    <node id="node_150" type="priority" x="-12094.0" y="-1371.3" />
    <node id="node_151" type="priority" x="-6022.2" y="-5121.0" />
    <node id="node_152" type="priority" x="-3676.3" y="-5185.2" />
    <node id="node_153" type="priority" x="-10589.0" y="219.77" />
    <node id="node_154" type="priority" x="-6806.5" y="-3792.5" />
    <node id="node_155" type="priority" x="-5884.8" y="-4707.3" />
    <node id="node_156" type="priority" x="-5796.4" y="-4461.3" />
    <node id="node_157" type="priority" x="-10226.0" y="137.94" />
    <node id="node_158" type="priority" x="-6402.2" y="-4821.1" />
    <node id="node_159" type="priority" x="-11797.0" y="-1300.5" />
    <node id="node_160" type="priority" x="-6705.8" y="-3222.5" />
    <node id="node_161" type="priority" x="-3368.1" y="780.12" />
    <node id="node_162" type="priority" x="-15529.0" y="281.41" />
    <node id="node_163" type="priority" x="-10417.0" y="65.539" />
    <node id="node_164" type="priority" x="-15324.0" y="590.98" />
    <node id="node_165" type="priority" x="-15736.0" y="629.97" />
    <node id="node_166" type="priority" x="-17201.0" y="2186.6" />
    <node id="node_167" type="priority" x="-3311.2" y="306.85" />
    <node id="node_168" type="priority" x="-15670.0" y="555.59" />
    <node id="node_169" type="priority" x="-6059.1" y="-4796.9" />
    <node id="node_170" type="priority" x="-17513.0" y="3807.5" />
    <node id="node_171" tl="GS_1052166069" type="traffic_light" x="-3509.1" y="727.17" />
    <node id="node_172" type="priority" x="-6941.9" y="-3609.8" />
    <node id="node_173" type="priority" x="-15419.0" y="762.47" />
    <node id="node_174" type="priority" x="-6826.2" y="-3360.9" />
    <node id="node_175" type="priority" x="-10615.0" y="101.68" />
    <node id="node_176" type="priority" x="-12126.0" y="-1460.6" />
    <node id="node_177" type="priority" x="-15835.0" y="1597.6" />
    <node id="node_178" type="priority" x="-7804.8" y="2125.4" />
    <node id="node_179" type="priority" x="-6763.2" y="-3733.5" />
    <node id="node_180" type="priority" x="-11874.0" y="-1208.4" />
    <node id="node_181" type="priority" x="-5967.3" y="-4994.9" />
    <node id="node_182" type="priority" x="-3766.6" y="720.99" />
    <node id="node_183" type="priority" x="-6003.0" y="-4922.9" />
    <node id="node_184" type="priority" x="-11909.0" y="-1571.1" />
    <node id="node_185" type="priority" x="-6895.2" y="-3555.2" />
    <node id="node_186" tl="GS_1052166282" type="traffic_light" x="-3745.1" y="603.28" />
    <node id="node_187" type="priority" x="-11191.0" y="10554.0" />
    <node id="node_188" type="priority" x="-11874.0" y="11061.0" />
    <node id="node_189" type="priority" x="-10931.0" y="11627.0" />
    <node id="node_190" type="priority" x="-9361.0" y="12484.0" />
    <node id="node_191" type="priority" x="-10432.0" y="11056.0" />
    <node id="node_192" type="priority" x="-10499.0" y="11325.0" />
    <node id="node_193" type="priority" x="-10036.0" y="11287.0" />
    <node id="node_194" type="priority" x="-11220.0" y="10999.0" />
    <node id="node_195" type="priority" x="-10533.0" y="11441.0" />
    <node id="node_196" type="priority" x="-9048.2" y="12469.0" />
    <node id="node_197" type="priority" x="-11250.0" y="13573.0" />
    <node id="node_198" type="priority" x="-10856.0" y="11425.0" />
    <node id="node_199" type="priority" x="-10157.0" y="11547.0" />
    <node id="node_200" type="priority" x="-11527.0" y="10967.0" />
    <node id="node_201" type="priority" x="-11316.0" y="13506.0" />
    <node id="node_202" type="priority" x="-10731.0" y="10493.0" />
    <node id="node_203" type="priority" x="-11170.0" y="12694.0" />
    <node id="node_204" type="priority" x="-10771.0" y="10833.0" />
    <node id="node_205" type="priority" x="-11143.0" y="12651.0" />
    <node id="node_206" type="priority" x="-11198.0" y="13525.0" />
    <node id="node_207" type="priority" x="-10812.0" y="11178.0" />
    <node id="node_208" type="priority" x="-11621.0" y="12203.0" />
    <node id="node_209" type="priority" x="-9912.8" y="11692.0" />
    <node id="node_210" type="priority" x="-10682.0" y="11304.0" />
    <node id="node_211" type="priority" x="-11100.0" y="13758.0" />
    <node id="node_212" type="priority" x="-11355.0" y="12974.0" />
    <node id="node_213" type="priority" x="-10169.0" y="11635.0" />
    <node id="node_214" type="priority" x="-10958.0" y="11334.0" />
    <node id="node_215" type="priority" x="-10472.0" y="11182.0" />
    <node id="node_216" type="priority" x="-10607.0" y="10566.0" />
    <node id="node_217" type="priority" x="-9673.2" y="11766.0" />
    <node id="node_218" type="priority" x="-10003.0" y="11199.0" />
    <node id="node_219" type="priority" x="-10113.0" y="11421.0" />
    <node id="node_220" type="priority" x="-10427.0" y="10977.0" />
    <node id="node_221" type="priority" x="-9686.5" y="11378.0" />
    <node id="node_222" type="priority" x="-9936.7" y="12075.0" />
    <node id="node_223" type="priority" x="-11947.0" y="11331.0" />
    <node id="node_224" type="priority" x="-11042.0" y="11245.0" />
    <node id="node_225" type="priority" x="-11317.0" y="10886.0" />
    <node id="node_226" type="priority" x="-9646.0" y="11295.0" />
    <node id="node_227" type="priority" x="-11205.0" y="10500.0" />
    <node id="node_228" type="priority" x="-9111.5" y="12007.0" />
    <node id="node_229" tl="GS_1061695272" type="traffic_light" x="-9071.3" y="12576.0" />
    <node id="node_230" type="priority" x="-11252.0" y="13408.0" />
    <node id="node_231" tl="GS_1061695290" type="traffic_light" x="-9247.3" y="12501.0" />
    <node id="node_232" type="priority" x="-10703.0" y="10636.0" />
    <node id="node_233" type="priority" x="-5519.5" y="-799.26" />
    <node id="node_234" type="priority" x="-2033.7" y="-1798.4" />
    <node id="node_235" type="priority" x="-1720.5" y="-2661.0" />
    <node id="node_236" type="priority" x="-1462.4" y="-2832.8" />
    <node id="node_237" type="priority" x="-2122.5" y="-1843.7" />
    <node id="node_238" type="priority" x="-1848.4" y="-2326.8" />
    <node id="node_239" type="priority" x="-4703.3" y="-2334.4" />
    <node id="node_240" type="priority" x="-1882.3" y="-2125.4" />
    <node id="node_241" type="priority" x="-5621.5" y="-834.82" />
    <node id="node_242" type="priority" x="-5730.9" y="-1087.7" />
    <node id="node_243" type="priority" x="-14868.0" y="3634.0" />
    <node id="node_244" type="priority" x="-12444.0" y="2887.2" />
    <node id="node_245" type="priority" x="-14995.0" y="3459.7" />
    <node id="node_246" type="priority" x="-12120.0" y="2877.6" />
    <node id="node_247" type="priority" x="-15049.0" y="4224.7" />
    <node id="node_248" type="priority" x="-14843.0" y="3132.6" />
    <node id="node_249" type="priority" x="-14792.0" y="6157.9" />
    <node id="node_250" type="priority" x="-14833.0" y="3222.7" />
    <node id="node_251" type="priority" x="-14932.0" y="4315.9" />
    <node id="node_252" type="priority" x="-14912.0" y="3455.1" />
    <node id="node_253" type="priority" x="-14916.0" y="5886.7" />
    <node id="node_254" type="priority" x="-17197.0" y="3694.1" />
    <node id="node_255" type="priority" x="-12450.0" y="3003.8" />
    <node id="node_256" type="priority" x="-15052.0" y="3365.2" />
    <node id="node_257" type="priority" x="-14971.0" y="5974.8" />
    <node id="node_258" type="priority" x="-14827.0" y="2996.9" />
    <node id="node_259" type="priority" x="-15015.0" y="4143.0" />
    <node id="node_260" type="priority" x="-14624.0" y="6052.6" />
    <node id="node_261" type="priority" x="-17165.0" y="3505.5" />
    <node id="node_262" type="priority" x="-14983.0" y="3538.8" />
    <node id="node_263" type="priority" x="-14810.0" y="3380.3" />
    <node id="node_264" type="priority" x="-12648.0" y="2745.3" />
    <node id="node_265" type="priority" x="-14543.0" y="6000.8" />
    <node id="node_266" type="priority" x="-14868.0" y="6136.7" />
    <node id="node_267" type="priority" x="-14960.0" y="3948.4" />
    <node id="node_268" type="priority" x="-14934.0" y="3263.6" />
    <node id="node_269" type="priority" x="-14165.0" y="4456.9" />
    <node id="node_270" type="priority" x="-14913.0" y="3588.1" />
    <node id="node_271" type="priority" x="-15025.0" y="4029.4" />
    <node id="node_272" type="priority" x="-14887.0" y="3055.3" />
    <node id="node_273" type="priority" x="-12109.0" y="2782.6" />
    <node id="node_274" type="priority" x="-14762.0" y="3195.4" />
    <node id="node_275" type="priority" x="-14582.0" y="5773.3" />
    <node id="node_276" type="priority" x="-15067.0" y="4116.0" />
    <node id="node_277" type="priority" x="-14796.0" y="2932.4" />
    <node id="node_278" type="priority" x="-14677.0" y="5764.1" />
    <node id="node_279" type="priority" x="-11154.0" y="13627.0" />
    <node id="node_280" type="priority" x="-10038.0" y="13369.0" />
    <node id="node_281" type="priority" x="-10083.0" y="13458.0" />
    <node id="node_282" type="priority" x="-9714.0" y="13336.0" />
    <node id="node_283" type="priority" x="-11574.0" y="13564.0" />
    <node id="node_284" type="priority" x="-10915.0" y="13690.0" />
    <node id="node_285" type="priority" x="-10739.0" y="13715.0" />
    <node id="node_286" type="priority" x="-10300.0" y="13732.0" />
    <node id="node_287" type="priority" x="-9731.9" y="13412.0" />
    <node id="node_288" type="priority" x="-9835.3" y="13558.0" />
    <node id="node_289" type="priority" x="-11306.0" y="12931.0" />
    <node id="node_290" type="priority" x="-9997.6" y="13739.0" />
    <node id="node_291" type="priority" x="-9790.5" y="13649.0" />
    <node id="node_292" type="priority" x="-9091.7" y="12769.0" />
    <node id="node_293" tl="GS_1066742878" type="traffic_light" x="-9219.8" y="12780.0" />
    <node id="node_294" type="priority" x="-9373.1" y="12757.0" />
    <node id="node_295" tl="GS_1066742913" type="traffic_light" x="-9377.8" y="12643.0" />
    <node id="node_296" type="priority" x="-15429.0" y="9467.4" />
    <node id="node_297" type="priority" x="-15612.0" y="9671.8" />
    <node id="node_298" type="priority" x="-15335.0" y="10448.0" />
    <node id="node_299" type="priority" x="-15527.0" y="9580.3" />
    <node id="node_300" type="priority" x="-15496.0" y="9208.1" />
    <node id="node_301" type="priority" x="-15368.0" y="10382.0" />
    <node id="node_302" type="priority" x="-15816.0" y="9651.3" />
    <node id="node_303" type="priority" x="-15537.0" y="9482.5" />
    <node id="node_304" type="priority" x="-15065.0" y="11253.0" />
    <node id="node_305" type="priority" x="-15221.0" y="11128.0" />
    <node id="node_306" type="priority" x="-15916.0" y="10364.0" />
    <node id="node_307" type="priority" x="-1707.2" y="15288.0" />
    <node id="node_308" type="priority" x="-4287.9" y="16541.0" />
    <node id="node_309" type="priority" x="-2744.1" y="15314.0" />
    <node id="node_310" type="priority" x="-3079.4" y="15678.0" />
    <node id="node_311" type="priority" x="-3775.8" y="15865.0" />
    <node id="node_312" type="priority" x="-4343.0" y="16216.0" />
    <node id="node_313" type="priority" x="-4002.0" y="16441.0" />
    <node id="node_314" type="priority" x="-3630.2" y="15900.0" />
    <node id="node_315" type="priority" x="-4313.5" y="16250.0" />
    <node id="node_316" type="priority" x="-2661.7" y="15511.0" />
    <node id="node_317" type="priority" x="-2379.4" y="15929.0" />
    <node id="node_318" type="priority" x="-3896.2" y="16171.0" />
    <node id="node_319" type="priority" x="-1641.5" y="15434.0" />
    <node id="node_320" tl="GS_1067889614" type="traffic_light" x="-1714.5" y="15008.0" />
    <node id="node_321" type="priority" x="-1659.9" y="15205.0" />
    <node id="node_322" type="priority" x="-4268.5" y="16303.0" />
    <node id="node_323" type="priority" x="-2278.1" y="15078.0" />
    <node id="node_324" type="priority" x="-3335.6" y="16222.0" />
    <node id="node_325" type="priority" x="-1954.7" y="15254.0" />
    <node id="node_326" type="priority" x="-2875.0" y="15700.0" />
    <node id="node_327" type="priority" x="-2810.6" y="15889.0" />
    <node id="node_328" type="priority" x="-3669.9" y="16455.0" />
    <node id="node_329" type="priority" x="-1869.2" y="15284.0" />
    <node id="node_330" type="priority" x="-3449.1" y="15346.0" />
    <node id="node_331" type="priority" x="-3606.7" y="15992.0" />
    <node id="node_332" type="priority" x="-3351.6" y="16080.0" />
    <node id="node_333" type="priority" x="-3821.3" y="16264.0" />
    <node id="node_334" type="priority" x="-3893.1" y="16577.0" />
    <node id="node_335" type="priority" x="-3805.7" y="16134.0" />
    <node id="node_336" type="priority" x="-3232.2" y="16211.0" />
    <node id="node_337" type="priority" x="-3377.9" y="15453.0" />
    <node id="node_338" type="priority" x="-2661.2" y="15819.0" />
    <node id="node_339" type="priority" x="-1746.4" y="15401.0" />
    <node id="node_340" type="priority" x="-1402.5" y="15363.0" />
    <node id="node_341" type="priority" x="-4347.6" y="16384.0" />
    <node id="node_342" type="priority" x="-3572.9" y="16510.0" />
    <node id="node_343" type="priority" x="-1731.7" y="15574.0" />
    <node id="node_344" type="priority" x="-2026.6" y="15321.0" />
    <node id="node_345" type="priority" x="-1900.3" y="14910.0" />
    <node id="node_346" type="priority" x="-1620.1" y="15380.0" />
    <node id="node_347" type="priority" x="-7217.3" y="-14886.0" />
    <node id="node_348" type="priority" x="-5704.9" y="-13679.0" />
    <node id="node_349" type="priority" x="-8018.0" y="-13241.0" />
    <node id="node_350" type="priority" x="-5574.8" y="-12276.0" />
    <node id="node_351" type="priority" x="-5361.3" y="-12045.0" />
    <node id="node_352" type="priority" x="-6478.8" y="-14651.0" />
    <node id="node_353" type="priority" x="-8487.3" y="-14930.0" />
    <node id="node_354" type="priority" x="-7958.7" y="-14960.0" />
    <node id="node_355" type="priority" x="-6218.4" y="-14449.0" />
    <node id="node_356" type="priority" x="-6820.3" y="-14677.0" />
    <node id="node_357" type="priority" x="-6638.4" y="-14774.0" />
    <node id="node_358" type="priority" x="-7827.5" y="-15096.0" />
    <node id="node_359" type="priority" x="-7050.2" y="-14835.0" />
    <node id="node_360" type="priority" x="-5609.3" y="-13507.0" />
    <node id="node_361" type="priority" x="-8336.6" y="-12839.0" />
    <node id="node_362" type="priority" x="-8166.1" y="-12777.0" />
    <node id="node_363" type="priority" x="-6556.6" y="-11446.0" />
    <node id="node_364" type="priority" x="-6108.1" y="-11665.0" />
    <node id="node_365" type="priority" x="-10016.0" y="13645.0" />
    <node id="node_366" type="priority" x="-10115.0" y="13708.0" />
    <node id="node_367" type="priority" x="-9535.7" y="13668.0" />
    <node id="node_368" type="priority" x="-9456.4" y="13411.0" />
    <node id="node_369" type="priority" x="-9520.2" y="13959.0" />
    <node id="node_370" type="priority" x="-9702.9" y="13884.0" />
    <node id="node_371" type="priority" x="-9904.2" y="13380.0" />
    <node id="node_372" type="priority" x="-11319.0" y="13710.0" />
    <node id="node_373" type="priority" x="-11242.0" y="12547.0" />
    <node id="node_374" type="priority" x="-7549.0" y="29551.0" />
    <node id="node_375" type="priority" x="-9507.7" y="25669.0" />
    <node id="node_376" type="priority" x="-7638.0" y="29560.0" />
    <node id="node_377" type="priority" x="-11603.0" y="26340.0" />
    <node id="node_378" type="priority" x="-7598.9" y="29836.0" />
    <node id="node_379" type="priority" x="-11419.0" y="12661.0" />
    <node id="node_380" type="priority" x="22605.0" y="-20611.0" />
    <node id="node_381" type="priority" x="22689.0" y="-20760.0" />
    <node id="node_382" type="priority" x="22667.0" y="-20629.0" />
    <node id="node_383" type="priority" x="22675.0" y="-20623.0" />
    <node id="node_384" type="priority" x="22074.0" y="-20771.0" />
    <node id="node_385" type="priority" x="22626.0" y="-20672.0" />
    <node id="node_386" type="priority" x="22025.0" y="-20777.0" />
    <node id="node_387" type="priority" x="22033.0" y="-20769.0" />
    <node id="node_388" type="priority" x="8455.4" y="-1554.3" />
    <node id="node_389" type="priority" x="3174.7" y="5699.5" />
    <node id="node_390" type="priority" x="-21381.0" y="3525.4" />
    <node id="node_391" type="priority" x="-21312.0" y="3449.6" />
    <node id="node_392" type="priority" x="-24380.0" y="1987.5" />
    <node id="node_393" type="priority" x="-18174.0" y="-2911.7" />
    <node id="node_394" type="priority" x="-18681.0" y="-2991.7" />
    <node id="node_395" type="priority" x="-19652.0" y="-2376.5" />
    <node id="node_396" type="priority" x="-13879.0" y="12647.0" />
    <node id="node_397" type="priority" x="-13819.0" y="12408.0" />
    <node id="node_398" type="priority" x="-13297.0" y="12417.0" />
    <node id="node_399" type="priority" x="-13353.0" y="12387.0" />
    <node id="node_400" type="priority" x="-13757.0" y="12623.0" />
    <node id="node_401" type="priority" x="-14086.0" y="12520.0" />
    <node id="node_402" type="priority" x="-12909.0" y="12188.0" />
    <node id="node_403" type="priority" x="-12939.0" y="12352.0" />
    <node id="node_404" type="priority" x="-12827.0" y="11888.0" />
    <node id="node_405" type="priority" x="-12596.0" y="11972.0" />
    <node id="node_406" type="priority" x="-4932.4" y="-10995.0" />
    <node id="node_407" type="priority" x="-4812.1" y="-10148.0" />
    <node id="node_408" type="priority" x="-4797.0" y="-10809.0" />
    <node id="node_409" type="priority" x="-4940.7" y="-10178.0" />
    <node id="node_410" type="priority" x="-5077.6" y="-10245.0" />
    <node id="node_411" type="priority" x="-5050.6" y="-10414.0" />
    <node id="node_412" type="priority" x="7664.8" y="-12422.0" />
    <node id="node_413" type="priority" x="8774.7" y="-12271.0" />
    <node id="node_414" type="priority" x="151.98" y="3049.3" />
    <node id="node_415" type="priority" x="3317.9" y="4414.8" />
    <node id="node_416" type="priority" x="11343.0" y="-7597.4" />
    <node id="node_417" type="priority" x="-6264.7" y="12293.0" />
    <node id="node_418" type="priority" x="-9794.3" y="10440.0" />
    <node id="node_419" tl="GS_1163010482" type="traffic_light" x="-6164.1" y="12235.0" />
    <node id="node_420" type="priority" x="-1946.6" y="-1599.9" />
    <node id="node_421" type="priority" x="3019.2" y="-1862.4" />
    <node id="node_422" type="priority" x="3293.7" y="-3690.0" />
    <node id="node_423" tl="GS_1166168346" type="traffic_light" x="3469.1" y="-3255.4" />
    <node id="node_424" type="priority" x="3338.2" y="-3890.9" />
    <node id="node_425" type="priority" x="3825.8" y="-2920.1" />
    <node id="node_426" type="priority" x="4199.2" y="-3700.7" />
    <node id="node_427" type="priority" x="3882.8" y="-2016.0" />
    <node id="node_428" type="priority" x="3917.9" y="-3569.6" />
    <node id="node_429" type="priority" x="2965.8" y="-1783.9" />
    <node id="node_430" tl="GS_1166168462" type="traffic_light" x="3842.8" y="-3427.1" />
    <node id="node_431" type="priority" x="3266.3" y="-2602.1" />
    <node id="node_432" tl="GS_1166168470" type="traffic_light" x="3600.1" y="-3771.3" />
    <node id="node_433" type="priority" x="3149.3" y="-4042.8" />
    <node id="node_434" tl="GS_1166168480" type="traffic_light" x="3343.9" y="-3537.6" />