<?xml version='1.0' encoding='UTF-8'?>
<nodes xmlns:xsi="http://www.w3.org/2001/XMLSchema-instance" version="0.27" xsi:noNamespaceSchemaLocation="http://sumo.dlr.de/xsd/nodes_file.xsd">
    <location convBoundary="2208.92,522.44,21219.92,15402.46" netOffset="-224973.31,-2700122.99" origBoundary="54.286966,24.391306,54.609531,24.591038" projParameter="+proj=utm +zone=40 +ellps=WGS84 +datum=WGS84 +units=m +no_defs" />

    <node id="node_0" type="priority" x="24923.0" y="-15594.0" />
    <node id="node_1" type="priority" x="8746.1" y="13575.0" />
    <node id="node_2" type="priority" x="4171.8" y="13839.0" />
    <node id="node_3" tl="GS_1003388266" type="traffic_light" x="-3489.1" y="258.46" />
    <node id="node_4" type="priority" x="224.79" y="-215.08" />
    <node id="node_5" type="priority" x="-3610.5" y="250.06" />
    <node id="node_6" tl="GS_1003388319" type="traffic_light" x="409.66" y="-209.18" />
    <node id="node_7" type="priority" x="-8249.0" y="15765.0" />
    <node id="node_8" type="priority" x="-6143.4" y="15748.0" />
    <node id="node_9" type="priority" x="1883.1" y="9952.0" />
    <node id="node_10" type="priority" x="-27006.0" y="4464.3" />
    <node id="node_11" type="priority" x="-26947.0" y="4394.3" />
    <node id="node_12" type="priority" x="-31938.0" y="-182.19" />
    <node id="node_13" type="priority" x="-28785.0" y="680.16" />
    <node id="node_14" type="unregulated" x="-30223.0" y="1445.9" />
    <node id="node_15" type="unregulated" x="-29928.0" y="1210.1" />
    <node id="node_16" type="priority" x="-30881.0" y="0.78087" />
    <node id="node_17" type="priority" x="29861.0" y="-12239.0" />
    <node id="node_18" type="priority" x="29774.0" y="-12296.0" />
    <node id="node_19" type="priority" x="-767.33" y="14777.0" />
    <node id="node_20" type="priority" x="-912.97" y="14722.0" />
    <node id="node_21" type="priority" x="-1002.6" y="14782.0" />
    <node id="node_22" type="priority" x="-10262.0" y="14624.0" />
    <node id="node_23" type="priority" x="-684.23" y="14917.0" />
    <node id="node_24" type="priority" x="-10277.0" y="14762.0" />
    <node id="node_25" type="priority" x="-13526.0" y="12613.0" />
    <node id="node_26" type="priority" x="-15350.0" y="8713.3" />
    <node id="node_27" type="priority" x="-26325.0" y="4163.9" />
    <node id="node_28" type="priority" x="-16867.0" y="6242.0" />
    <node id="node_29" type="priority" x="-14360.0" y="11681.0" />
    <node id="node_30" type="priority" x="-13705.0" y="12605.0" />
    <node id="node_31" type="priority" x="-15189.0" y="8997.5" />
    <node id="node_32" type="priority" x="-14227.0" y="11614.0" />
    <node id="node_33" type="priority" x="-15057.0" y="8828.6" />
    <node id="node_34" type="priority" x="-14264.0" y="11696.0" />
    <node id="node_35" type="priority" x="-15322.0" y="8954.6" />
    <node id="node_36" type="priority" x="-8378.2" y="14561.0" />
    <node id="node_37" type="priority" x="-8427.3" y="16577.0" />
    <node id="node_38" type="priority" x="-8916.3" y="14959.0" />
    <node id="node_39" type="priority" x="-11343.0" y="14463.0" />
    <node id="node_40" type="priority" x="-8647.2" y="15641.0" />
    <node id="node_41" type="priority" x="-9378.1" y="16163.0" />
    <node id="node_42" type="priority" x="-8719.2" y="15010.0" />
    <node id="node_43" type="priority" x="-8535.2" y="15379.0" />
    <node id="node_44" type="priority" x="-9524.6" y="15090.0" />
    <node id="node_45" type="priority" x="-8316.9" y="14653.0" />
    <node id="node_46" type="priority" x="-11797.0" y="14029.0" />
    <node id="node_47" type="priority" x="-11994.0" y="14004.0" />
    <node id="node_48" type="priority" x="-11814.0" y="13999.0" />
    <node id="node_49" type="priority" x="-11728.0" y="14101.0" />
    <node id="node_50" type="priority" x="-11904.0" y="13939.0" />
    <node id="node_51" type="priority" x="-11930.0" y="13941.0" />
    <node id="node_52" type="priority" x="-11828.0" y="14101.0" />
    <node id="node_53" type="priority" x="-12128.0" y="13794.0" />
    <node id="node_54" type="priority" x="-11398.0" y="11355.0" />
    <node id="node_55" type="priority" x="-11491.0" y="11334.0" />
    <node id="node_56" type="priority" x="6031.6" y="5559.4" />
    <node id="node_57" type="priority" x="-13996.0" y="-2121.0" />
    <node id="node_58" type="priority" x="-13133.0" y="-2095.4" />
    <node id="node_59" type="priority" x="-13726.0" y="-2228.2" />
    <node id="node_60" type="priority" x="-13089.0" y="-1955.1" />
    <node id="node_61" type="priority" x="-14132.0" y="-2420.2" />
    <node id="node_62" type="priority" x="-14167.0" y="-2316.9" />
    <node id="node_63" type="priority" x="-13969.0" y="-2495.6" />
    <node id="node_64" type="priority" x="-13805.0" y="-2080.4" />
    <node id="node_65" type="priority" x="-13817.0" y="-2391.5" />
    <node id="node_66" type="priority" x="-13271.0" y="-2077.5" />
    <node id="node_67" type="priority" x="-14036.0" y="-2427.8" />
    <node id="node_68" type="priority" x="-14989.0" y="-3775.0" />
    <node id="node_69" type="priority" x="-14447.0" y="-3192.7" />
    <node id="node_70" type="priority" x="-16951.0" y="-6578.6" />
    <node id="node_71" type="priority" x="-17311.0" y="-6798.3" />
    <node id="node_72" type="priority" x="-15984.0" y="-4875.1" />
    <node id="node_73" type="priority" x="-17821.0" y="-6823.1" />
    <node id="node_74" type="priority" x="-16162.0" y="-4537.3" />
    <node id="node_75" type="priority" x="-16447.0" y="-4770.1" />
    <node id="node_76" type="unregulated" x="-14349.0" y="-7152.1" />
    <node id="node_77" type="priority" x="-17133.0" y="-6213.2" />
    <node id="node_78" type="priority" x="-16989.0" y="-5681.6" />
    <node id="node_79" type="priority" x="-17714.0" y="-6467.0" />
    <node id="node_80" type="unregulated" x="-14254.0" y="-7031.4" />
    <node id="node_81" type="priority" x="-17252.0" y="-6216.7" />
    <node id="node_82" type="priority" x="-17849.0" y="-6730.7" />
    <node id="node_83" type="priority" x="-17579.0" y="-6532.3" />
    <node id="node_84" type="priority" x="-17354.0" y="-6271.3" />
    <node id="node_85" type="priority" x="-21312.0" y="-5654.3" />
    <node id="node_86" type="priority" x="-20825.0" y="-5030.5" />
    <node id="node_87" type="priority" x="-20924.0" y="-5244.6" />
    <node id="node_88" type="priority" x="-17284.0" y="-7200.9" />
    <node id="node_89" type="priority" x="-16880.0" y="-6416.0" />
    <node id="node_90" type="priority" x="-16978.0" y="-6689.0" />
    <node id="node_91" type="priority" x="-17199.0" y="-6960.7" />
    <node id="node_92" type="priority" x="-17609.0" y="-7504.7" />
    <node id="node_93" type="priority" x="-16747.0" y="-5007.1" />
    <node id="node_94" type="priority" x="-9732.1" y="-7214.1" />
    <node id="node_95" type="priority" x="-10762.0" y="-6305.6" />
    <node id="node_96" type="priority" x="-10637.0" y="-6615.3" />
    <node id="node_97" type="priority" x="-12231.0" y="-6473.4" />
    <node id="node_98" type="priority" x="-10354.0" y="-7862.3" />
    <node id="node_99" type="priority" x="-9744.6" y="-7293.0" />
    <node id="node_100" type="priority" x="-10207.0" y="-6935.1" />
    <node id="node_101" type="priority" x="-12697.0" y="-6261.9" />
    <node id="node_102" type="priority" x="-10593.0" y="-7941.0" />
    <node id="node_103" type="priority" x="-10928.0" y="-7702.2" />
    <node id="node_104" type="priority" x="-11009.0" y="-7683.7" />
    <node id="node_105" type="priority" x="-11033.0" y="-6129.0" />
    <node id="node_106" type="priority" x="-10746.0" y="-6239.9" />
    <node id="node_107" type="priority" x="-10904.0" y="-7663.6" />
    <node id="node_108" type="priority" x="-10906.0" y="-7768.8" />
    <node id="node_109" type="priority" x="-12472.0" y="-6503.1" />
    <node id="node_110" type="priority" x="-10623.0" y="-7576.8" />
    <node id="node_111" type="priority" x="-9185.4" y="-7158.8" />
    <node id="node_112" type="priority" x="-10564.0" y="-6512.0" />
    <node id="node_113" type="priority" x="-12559.0" y="-6375.1" />
    <node id="node_114" type="priority" x="-10237.0" y="-7035.4" />
    <node id="node_115" type="priority" x="-10788.0" y="-6334.3" />
    <node id="node_116" type="priority" x="-10672.0" y="-6311.7" />
    <node id="node_117" type="priority" x="-9198.9" y="-7046.2" />
    <node id="node_118" type="priority" x="-10593.0" y="-6599.2" />
    <node id="node_119" type="priority" x="-12351.0" y="-6187.9" />
    <node id="node_120" type="priority" x="-12236.0" y="-6376.3" />
    <node id="node_121" type="priority" x="-10509.0" y="-6635.7" />
    <node id="node_122" type="priority" x="-9822.8" y="-7527.7" />
    <node id="node_123" type="priority" x="-10199.0" y="-7009.7" />
    <node id="node_124" type="priority" x="-10463.0" y="-7515.2" />
    <node id="node_125" type="priority" x="-12366.0" y="-6493.8" />
    <node id="node_126" type="priority" x="-12154.0" y="-6049.3" />
    <node id="node_127" type="priority" x="-10119.0" y="-7015.1" />
    <node id="node_128" type="priority" x="-8795.7" y="-2749.0" />
    <node id="node_129" type="priority" x="-8899.2" y="-3106.1" />
    <node id="node_130" type="priority" x="-8872.0" y="-3400.2" />
    <node id="node_131" type="priority" x="-8795.8" y="-2894.7" />
    <node id="node_132" type="priority" x="-12196.0" y="-1448.5" />
    <node id="node_133" tl="GS_1052165761" type="traffic_light" x="-3106.0" y="443.09" />
    <node id="node_134" type="priority" x="-15690.0" y="438.56" />
    <node id="node_135" type="priority" x="-6695.9" y="-3453.6" />
    <node id="node_136" type="priority" x="-5804.8" y="-4955.2" />
    <node id="node_137" type="priority" x="-5851.2" y="-4898.8" />
    <node id="node_138" type="priority" x="-7942.9" y="2027.5" />
    <node id="node_139" type="priority" x="-16128.0" y="1485.1" />
    <node id="node_140" type="priority" x="-11833.0" y="-1326.4" />
    <node id="node_141" type="priority" x="-15660.0" y="755.14" />
    <node id="node_142" type="priority" x="-17438.0" y="3712.9" />
    <node id="node_143" type="priority" x="-10604.0" y="88.968" />
    <node id="node_144" type="priority" x="-6531.9" y="-4894.9" />
    <node id="node_145" type="priority" x="-10472.0" y="425.61" />
    <node id="node_146" type="priority" x="-15459.0" y="481.65" />
    <node id="node_147" type="priority" x="-12050.0" y="-1109.0" />
    <node id="node_148" type="priority" x="-3796.3" y="-748.73" />
    <node id="node_149" type="priority" x="-3765.3" y="-5412.6" />
    <node id="node_150" type="priority" x="-12181.0" y="-1231.6" />
    <node id="node_151" type="priority" x="-6040.5" y="-5207.9" />
    <node id="node_152" type="priority" x="-3678.2" y="-5263.4" />
    <node id="node_153" type="priority" x="-10599.0" y="317.75" />
    <node id="node_154" type="priority" x="-6806.9" y="-3739.3" />
    <node id="node_155" type="priority" x="-5927.7" y="-4764.8" />
    <node id="node_156" type="priority" x="-5845.3" y="-4554.6" />
    <node id="node_157" type="priority" x="-10279.0" y="221.72" />
    <node id="node_158" type="priority" x="-6426.1" y="-4874.5" />
    <node id="node_159" type="priority" x="-11885.0" y="-1193.2" />
    <node id="node_160" type="priority" x="-6717.3" y="-3176.6" />
    <node id="node_161" type="priority" x="-3213.3" y="753.42" />
    <node id="node_162" type="priority" x="-15637.0" y="320.99" />
    <node id="node_163" type="priority" x="-10447.0" y="97.066" />
    <node id="node_164" type="priority" x="-15434.0" y="613.02" />
    <node id="node_165" type="priority" x="-15858.0" y="626.15" />
    <node id="node_166" type="priority" x="-17383.0" y="2019.1" />
    <node id="node_167" type="priority" x="-3168.8" y="264.14" />
    <node id="node_168" type="priority" x="-15787.0" y="555.08" />
    <node id="node_169" type="priority" x="-6089.5" y="-4845.7" />
    <node id="node_170" type="priority" x="-17545.0" y="3763.2" />
    <node id="node_171" tl="GS_1052166069" type="traffic_light" x="-3348.2" y="667.12" />
    <node id="node_172" type="priority" x="-6952.8" y="-3572.4" />
    <node id="node_173" type="priority" x="-15539.0" y="780.98" />
    <node id="node_174" type="priority" x="-6838.5" y="-3317.2" />
    <node id="node_175" type="priority" x="-10642.0" y="177.82" />
    <node id="node_176" type="priority" x="-12210.0" y="-1321.2" />
    <node id="node_177" type="priority" x="-15928.0" y="1605.8" />
    <node id="node_178" type="priority" x="-7829.0" y="2055.4" />
    <node id="node_179" type="priority" x="-6764.4" y="-3679.6" />
    <node id="node_180" type="priority" x="-11954.0" y="-1084.3" />
    <node id="node_181" type="priority" x="-6007.0" y="-5064.4" />
    <node id="node_182" type="priority" x="-3566.5" y="643.51" />
    <node id="node_183" type="priority" x="-6040.1" y="-4991.8" />
    <node id="node_184" type="priority" x="-12012.0" y="-1430.0" />
    <node id="node_185" type="priority" x="-6907.7" y="-3515.8" />
    <node id="node_186" tl="GS_1052166282" type="traffic_light" x="-3634.4" y="548.68" />
    <node id="node_187" type="priority" x="-10991.0" y="10585.0" />
    <node id="node_188" type="priority" x="-11740.0" y="11017.0" />
    <node id="node_189" type="priority" x="-10798.0" y="11684.0" />
    <node id="node_190" type="priority" x="-9195.6" y="12375.0" />
    <node id="node_191" type="priority" x="-10135.0" y="11091.0" />
    <node id="node_192" type="priority" x="-10257.0" y="11380.0" />
    <node id="node_193" type="priority" x="-9702.4" y="11293.0" />
    <node id="node_194" type="priority" x="-11032.0" y="11016.0" />
    <node id="node_195" type="priority" x="-10297.0" y="11488.0" />
    <node id="node_196" type="priority" x="-8884.1" y="12483.0" />
    <node id="node_197" type="priority" x="-11114.0" y="13580.0" />
    <node id="node_198" type="priority" x="-10664.0" y="11433.0" />
    <node id="node_199" type="priority" x="-9866.9" y="11552.0" />
    <node id="node_200" type="priority" x="-11389.0" y="10930.0" />
    <node id="node_201" type="priority" x="-11179.0" y="13510.0" />
    <node id="node_202" type="priority" x="-10432.0" y="10545.0" />
    <node id="node_203" type="priority" x="-11069.0" y="12672.0" />
    <node id="node_204" type="priority" x="-10478.0" y="10871.0" />
    <node id="node_205" type="priority" x="-11043.0" y="12621.0" />
    <node id="node_206" type="priority" x="-11082.0" y="13508.0" />
    <node id="node_207" type="priority" x="-10569.0" y="11232.0" />
    <node id="node_208" type="priority" x="-11542.0" y="12181.0" />
    <node id="node_209" type="priority" x="-9630.4" y="11698.0" />
    <node id="node_210" type="priority" x="-10464.0" y="11359.0" />
    <node id="node_211" type="priority" x="-10984.0" y="13757.0" />
    <node id="node_212" type="priority" x="-11221.0" y="12899.0" />
    <node id="node_213" type="priority" x="-9871.6" y="11647.0" />
    <node id="node_214" type="priority" x="-10748.0" y="11338.0" />
    <node id="node_215" type="priority" x="-10195.0" y="11225.0" />
    <node id="node_216" type="priority" x="-10307.0" y="10620.0" />
    <node id="node_217" type="priority" x="-9411.2" y="11782.0" />
    <node id="node_218" type="priority" x="-9650.4" y="11211.0" />
    <node id="node_219" type="priority" x="-9791.3" y="11424.0" />
    <node id="node_220" type="priority" x="-10085.0" y="11002.0" />
    <node id="node_221" type="priority" x="-9329.5" y="11359.0" />
    <node id="node_222" type="priority" x="-9773.2" y="12036.0" />
    <node id="node_223" type="priority" x="-11824.0" y="11279.0" />
    <node id="node_224" type="priority" x="-10831.0" y="11258.0" />
    <node id="node_225" type="priority" x="-11139.0" y="10904.0" />
    <node id="node_226" type="priority" x="-9272.4" y="11286.0" />
    <node id="node_227" type="priority" x="-11003.0" y="10529.0" />
    <node id="node_228" type="priority" x="-8923.3" y="12098.0" />
    <node id="node_229" tl="GS_1061695272" type="traffic_light" x="-8949.0" y="12561.0" />
    <node id="node_230" type="priority" x="-11143.0" y="13392.0" />
    <node id="node_231" tl="GS_1061695290" type="traffic_light" x="-9076.0" y="12392.0" />
    <node id="node_232" type="priority" x="-10404.0" y="10687.0" />
    <node id="node_233" type="priority" x="-5503.9" y="-901.74" />
    <node id="node_234" type="priority" x="-1891.2" y="-1752.6" />
    <node id="node_235" type="priority" x="-1580.8" y="-2628.3" />
    <node id="node_236" type="priority" x="-1335.1" y="-2825.5" />
    <node id="node_237" type="priority" x="-1979.8" y="-1807.0" />
    <node id="node_238" type="priority" x="-1705.9" y="-2284.7" />
    <node id="node_239" type="priority" x="-4730.2" y="-2505.1" />
    <node id="node_240" type="priority" x="-1753.9" y="-2086.3" />
    <node id="node_241" type="priority" x="-5606.5" y="-948.31" />
    <node id="node_242" type="priority" x="-5723.6" y="-1201.7" />
    <node id="node_243" type="priority" x="-15025.0" y="3512.5" />
    <node id="node_244" type="priority" x="-12456.0" y="2893.3" />
    <node id="node_245" type="priority" x="-15496.0" y="3444.8" />
    <node id="node_246" type="priority" x="-12146.0" y="2901.5" />
    <node id="node_247" type="priority" x="-15386.0" y="4152.8" />
    <node id="node_248" type="priority" x="-14925.0" y="3044.8" />
    <node id="node_249" type="priority" x="-14887.0" y="6000.7" />
    <node id="node_250" type="priority" x="-15259.0" y="3185.4" />
    <node id="node_251" type="priority" x="-15303.0" y="4285.0" />
    <node id="node_252" type="priority" x="-15413.0" y="3436.5" />
    <node id="node_253" type="priority" x="-15017.0" y="5732.4" />
    <node id="node_254" type="priority" x="-17256.0" y="3633.1" />
    <node id="node_255" type="priority" x="-12465.0" y="2997.6" />
    <node id="node_256" type="priority" x="-15206.0" y="3297.8" />
    <node id="node_257" type="priority" x="-15069.0" y="5821.4" />
    <node id="node_258" type="priority" x="-15131.0" y="2957.5" />
    <node id="node_259" type="priority" x="-15361.0" y="4073.9" />
    <node id="node_260" type="priority" x="-14717.0" y="5873.9" />
    <node id="node_261" type="priority" x="-17202.0" y="3445.6" />
    <node id="node_262" type="priority" x="-15175.0" y="3459.6" />
    <node id="node_263" type="priority" x="-15289.0" y="3369.3" />
    <node id="node_264" type="priority" x="-12738.0" y="2765.3" />
    <node id="node_265" type="priority" x="-14622.0" y="5817.1" />
    <node id="node_266" type="priority" x="-14951.0" y="5965.4" />
    <node id="node_267" type="priority" x="-15206.0" y="3876.0" />
    <node id="node_268" type="priority" x="-15365.0" y="3206.4" />
    <node id="node_269" type="priority" x="-14229.0" y="4393.9" />
    <node id="node_270" type="priority" x="-15072.0" y="3467.9" />
    <node id="node_271" type="priority" x="-15271.0" y="3971.5" />
    <node id="node_272" type="priority" x="-15203.0" y="2991.2" />
    <node id="node_273" type="priority" x="-12124.0" y="2811.1" />
    <node id="node_274" type="priority" x="-15184.0" y="3182.1" />
    <node id="node_275" type="priority" x="-14714.0" y="5647.1" />
    <node id="node_276" type="priority" x="-15415.0" y="4050.2" />
    <node id="node_277" type="priority" x="-15089.0" y="2896.1" />
    <node id="node_278" type="priority" x="-14780.0" y="5608.6" />
    <node id="node_279" type="priority" x="-11078.0" y="13618.0" />
    <node id="node_280" type="priority" x="-9960.2" y="13360.0" />
    <node id="node_281" type="priority" x="-10005.0" y="13486.0" />
    <node id="node_282" type="priority" x="-9647.0" y="13291.0" />
    <node id="node_283" type="priority" x="-11426.0" y="13602.0" />
    <node id="node_284" type="priority" x="-10800.0" y="13689.0" />
    <node id="node_285" type="priority" x="-10625.0" y="13721.0" />
    <node id="node_286" type="priority" x="-10188.0" y="13741.0" />
    <node id="node_287" type="priority" x="-9629.4" y="13405.0" />
    <node id="node_288" type="priority" x="-9739.7" y="13565.0" />
    <node id="node_289" type="priority" x="-11170.0" y="12861.0" />
    <node id="node_290" type="priority" x="-9883.0" y="13737.0" />
    <node id="node_291" type="priority" x="-9657.9" y="13641.0" />
    <node id="node_292" type="priority" x="-8986.1" y="12680.0" />
    <node id="node_293" tl="GS_1066742878" type="traffic_light" x="-9108.4" y="12673.0" />
    <node id="node_294" type="priority" x="-9220.1" y="12638.0" />
    <node id="node_295" tl="GS_1066742913" type="traffic_light" x="-9237.2" y="12533.0" />
    <node id="node_296" type="priority" x="-15488.0" y="9429.6" />
    <node id="node_297" type="priority" x="-15714.0" y="9637.1" />
    <node id="node_298" type="priority" x="-15302.0" y="10674.0" />
    <node id="node_299" type="priority" x="-15622.0" y="9559.7" />
    <node id="node_300" type="priority" x="-15586.0" y="9176.7" />
    <node id="node_301" type="priority" x="-15338.0" y="10609.0" />
    <node id="node_302" type="priority" x="-15965.0" y="9599.6" />
    <node id="node_303" type="priority" x="-15640.0" y="9467.5" />
    <node id="node_304" type="priority" x="-14975.0" y="11288.0" />
    <node id="node_305" type="priority" x="-15133.0" y="11151.0" />
    <node id="node_306" type="priority" x="-15865.0" y="10362.0" />
    <node id="node_307" type="priority" x="-1810.4" y="15296.0" />
    <node id="node_308" type="priority" x="-4346.4" y="16482.0" />
    <node id="node_309" type="priority" x="-2829.9" y="15305.0" />
    <node id="node_310" type="priority" x="-3194.6" y="15622.0" />
    <node id="node_311" type="priority" x="-3870.1" y="15780.0" />
    <node id="node_312" type="priority" x="-4375.1" y="16177.0" />
    <node id="node_313" type="priority" x="-4061.7" y="16421.0" />
    <node id="node_314" type="priority" x="-3736.9" y="15821.0" />
    <node id="node_315" type="priority" x="-4342.7" y="16208.0" />
    <node id="node_316" type="priority" x="-2761.0" y="15509.0" />
    <node id="node_317" type="priority" x="-2504.5" y="15910.0" />
    <node id="node_318" type="priority" x="-3941.7" y="16085.0" />
    <node id="node_319" type="priority" x="-1761.0" y="15451.0" />
    <node id="node_320" tl="GS_1067889614" type="traffic_light" x="-1758.2" y="15035.0" />
    <node id="node_321" type="priority" x="-1721.1" y="15215.0" />
    <node id="node_322" type="priority" x="-4296.7" y="16260.0" />
    <node id="node_323" type="priority" x="-2342.5" y="15102.0" />
    <node id="node_324" type="priority" x="-3426.1" y="16137.0" />
    <node id="node_325" type="priority" x="-2039.4" y="15269.0" />
    <node id="node_326" type="priority" x="-2976.3" y="15625.0" />
    <node id="node_327" type="priority" x="-2920.2" y="15820.0" />
    <node id="node_328" type="priority" x="-3743.4" y="16399.0" />
    <node id="node_329" type="priority" x="-1930.4" y="15271.0" />
    <node id="node_330" type="priority" x="-3557.9" y="15264.0" />
    <node id="node_331" type="priority" x="-3723.5" y="15907.0" />
    <node id="node_332" type="priority" x="-3441.2" y="15995.0" />
    <node id="node_333" type="priority" x="-3876.9" y="16156.0" />
    <node id="node_334" type="priority" x="-3955.8" y="16546.0" />
    <node id="node_335" type="priority" x="-3857.8" y="16029.0" />
    <node id="node_336" type="priority" x="-3332.8" y="16110.0" />
    <node id="node_337" type="priority" x="-3491.6" y="15371.0" />
    <node id="node_338" type="priority" x="-2741.1" y="15767.0" />
    <node id="node_339" type="priority" x="-1836.4" y="15421.0" />
    <node id="node_340" type="priority" x="-1525.1" y="15404.0" />
    <node id="node_341" type="priority" x="-4371.3" y="16349.0" />
    <node id="node_342" type="priority" x="-3645.5" y="16446.0" />
    <node id="node_343" type="priority" x="-1847.4" y="15590.0" />
    <node id="node_344" type="priority" x="-2113.6" y="15323.0" />
    <node id="node_345" type="priority" x="-1939.0" y="14923.0" />
    <node id="node_346" type="priority" x="-1738.9" y="15403.0" />
    <node id="node_347" type="priority" x="-7458.1" y="-14884.0" />
    <node id="node_348" type="priority" x="-5856.0" y="-13700.0" />
    <node id="node_349" type="priority" x="-8290.0" y="-13188.0" />
    <node id="node_350" type="priority" x="-5717.5" y="-12295.0" />
    <node id="node_351" type="priority" x="-5486.7" y="-12071.0" />
    <node id="node_352" type="priority" x="-6652.5" y="-14675.0" />
    <node id="node_353" type="priority" x="-8716.1" y="-14838.0" />
    <node id="node_354" type="priority" x="-8132.1" y="-14869.0" />
    <node id="node_355" type="priority" x="-6378.0" y="-14479.0" />
    <node id="node_356" type="priority" x="-6984.0" y="-14734.0" />
    <node id="node_357" type="priority" x="-6804.2" y="-14787.0" />
    <node id="node_358" type="priority" x="-7999.2" y="-15000.0" />
    <node id="node_359" type="priority" x="-7271.8" y="-14847.0" />
    <node id="node_360" type="priority" x="-5766.0" y="-13531.0" />
    <node id="node_361" type="priority" x="-8445.8" y="-12714.0" />
    <node id="node_362" type="priority" x="-8278.8" y="-12661.0" />
    <node id="node_363" type="priority" x="-6696.2" y="-11156.0" />
    <node id="node_364" type="priority" x="-6234.5" y="-11384.0" />
    <node id="node_365" type="priority" x="-9911.1" y="13657.0" />
    <node id="node_366" type="priority" x="-10007.0" y="13734.0" />
    <node id="node_367" type="priority" x="-9412.8" y="13595.0" />
    <node id="node_368" type="priority" x="-9335.2" y="13340.0" />
    <node id="node_369" type="priority" x="-9399.6" y="13922.0" />
    <node id="node_370" type="priority" x="-9558.4" y="13846.0" />
    <node id="node_371" type="priority" x="-9825.5" y="13396.0" />
    <node id="node_372" type="priority" x="-11237.0" y="13696.0" />
    <node id="node_373" type="priority" x="-11138.0" y="12513.0" />
    <node id="node_374" type="priority" x="-7489.2" y="29793.0" />
    <node id="node_375" type="priority" x="-9544.5" y="25786.0" />
    <node id="node_376" type="priority" x="-7588.7" y="29802.0" />
    <node id="node_377" type="priority" x="-11466.0" y="26420.0" />
    <node id="node_378" type="priority" x="-7530.1" y="30082.0" />
    <node id="node_379" type="priority" x="-11323.0" y="12610.0" />
    <node id="node_380" type="priority" x="22462.0" y="-20928.0" />
    <node id="node_381" type="priority" x="22510.0" y="-21085.0" />
    <node id="node_382" type="priority" x="22521.0" y="-20953.0" />
    <node id="node_383" type="priority" x="22531.0" y="-20952.0" />
    <node id="node_384" type="priority" x="21920.0" y="-21084.0" />
    <node id="node_385" type="priority" x="22463.0" y="-20984.0" />
    <node id="node_386" type="priority" x="21871.0" y="-21092.0" />
    <node id="node_387" type="priority" x="21880.0" y="-21083.0" />
    <node id="node_388" type="priority" x="8737.2" y="-1515.4" />
    <node id="node_389" type="priority" x="3439.6" y="5816.3" />
    <node id="node_390" type="priority" x="-21360.0" y="3391.4" />
    <node id="node_391" type="priority" x="-21296.0" y="3312.2" />
    <node id="node_392" type="priority" x="-24433.0" y="1859.6" />
    <node id="node_393" type="priority" x="-18272.0" y="-2909.0" />
    <node id="node_394" type="priority" x="-18774.0" y="-2987.3" />
    <node id="node_395" type="priority" x="-19697.0" y="-2403.8" />
    <node id="node_396" type="priority" x="-13782.0" y="12831.0" />
    <node id="node_397" type="priority" x="-13843.0" y="12410.0" />
    <node id="node_398" type="priority" x="-13239.0" y="12478.0" />
    <node id="node_399" type="priority" x="-13337.0" y="12446.0" />
    <node id="node_400" type="priority" x="-13667.0" y="12817.0" />
    <node id="node_401" type="priority" x="-14067.0" y="12517.0" />
    <node id="node_402" type="priority" x="-12881.0" y="12165.0" />
    <node id="node_403" type="priority" x="-12867.0" y="12341.0" />
    <node id="node_404" type="priority" x="-12709.0" y="11841.0" />
    <node id="node_405" type="priority" x="-12482.0" y="11950.0" />
    <node id="node_406" type="priority" x="-4960.3" y="-10881.0" />
    <node id="node_407" type="priority" x="-4839.1" y="-10074.0" />
    <node id="node_408" type="priority" x="-4855.7" y="-10678.0" />
    <node id="node_409" type="priority" x="-4975.5" y="-10082.0" />
    <node id="node_410" type="priority" x="-5139.4" y="-10103.0" />
    <node id="node_411" type="priority" x="-5132.2" y="-10286.0" />
    <node id="node_412" type="priority" x="7807.5" y="-12444.0" />
    <node id="node_413" type="priority" x="8821.7" y="-12361.0" />
    <node id="node_414" type="priority" x="454.84" y="2961.0" />
    <node id="node_415" type="priority" x="3571.3" y="4548.2" />
    <node id="node_416" type="priority" x="11444.0" y="-7877.2" />
    <node id="node_417" type="priority" x="-6204.5" y="12319.0" />
    <node id="node_418" type="priority" x="-9579.8" y="10481.0" />
    <node id="node_419" tl="GS_1163010482" type="traffic_light" x="-6107.1" y="12268.0" />
    <node id="node_420" type="priority" x="-1784.6" y="-1533.1" />
    <node id="node_421" type="priority" x="3109.3" y="-1844.4" />
    <node id="node_422" type="priority" x="3417.0" y="-3677.0" />
    <node id="node_423" tl="GS_1166168346" type="traffic_light" x="3570.5" y="-3230.1" />
    <node id="node_424" type="priority" x="3393.8" y="-3917.9" />
    <node id="node_425" type="priority" x="3912.5" y="-2896.0" />
    <node id="node_426" type="priority" x="4344.3" y="-3664.2" />
    <node id="node_427" type="priority" x="4024.1" y="-1946.3" />
    <node id="node_428" type="priority" x="4025.7" y="-3548.0" />
    <node id="node_429" type="priority" x="3052.9" y="-1767.0" />
    <node id="node_430" tl="GS_1166168462" type="traffic_light" x="3943.6" y="-3411.4" />
    <node id="node_431" type="priority" x="3360.0" y="-2580.3" />
    <node id="node_432" tl="GS_1166168470" type="traffic_light" x="3698.2" y="-3741.3" />
    <node id="node_433" type="priority" x="3201.4" y="-4058.2" />
    <node id="node_434" tl="GS_1166168480" type="traffic_light" x="3454.4" y="-3520.1" />