<?xml version='1.0' encoding='UTF-8'?>
<nodes xmlns:xsi="http://www.w3.org/2001/XMLSchema-instance" version="0.27" xsi:noNamespaceSchemaLocation="http://sumo.dlr.de/xsd/nodes_file.xsd">
    <location convBoundary="2208.92,522.44,21219.92,15402.46" netOffset="-224973.31,-2700122.99" origBoundary="54.286966,24.391306,54.609531,24.591038" projParameter="+proj=utm +zone=40 +ellps=WGS84 +datum=WGS84 +units=m +no_defs" />

    <node id="node_0" type="priority" x="122980.0" y="-86586.0" />
    <node id="node_1" type="priority" x="39860.0" y="75682.0" />
    <node id="node_2" type="priority" x="17623.0" y="72480.0" />
    <node id="node_3" tl="GS_1003388266" type="traffic_light" x="-16365.0" y="2785.1" />
    <node id="node_4" type="priority" x="2063.0" y="-455.68" />
    <node id="node_5" type="priority" x="-16448.0" y="3242.2" />
    <node id="node_6" tl="GS_1003388319" type="traffic_light" x="2748.6" y="-554.82" />
    <node id="node_7" type="priority" x="-44276.0" y="78620.0" />
    <node id="node_8" type="priority" x="-36397.0" y="78947.0" />
    <node id="node_9" type="priority" x="8014.1" y="48274.0" />
    <node id="node_10" type="priority" x="-133090.0" y="18091.0" />
    <node id="node_11" type="priority" x="-132580.0" y="18074.0" />
    <node id="node_12" type="priority" x="-157530.0" y="-6711.0" />
    <node id="node_13" type="priority" x="-140160.0" y="-1680.1" />
    <node id="node_14" type="unregulated" x="-148460.0" y="182.65" />
    <node id="node_15" type="unregulated" x="-147380.0" y="-2128.1" />
    <node id="node_16" type="priority" x="-151750.0" y="-5438.5" />
    <node id="node_17" type="priority" x="152740.0" y="-72430.0" />
    <node id="node_18" type="priority" x="152280.0" y="-72614.0" />
    <node id="node_19" type="priority" x="-8306.7" y="73944.0" />
    <node id="node_20" type="priority" x="-8578.0" y="73381.0" />
    <node id="node_21" type="priority" x="-8898.2" y="73823.0" />
    <node id="node_22" type="priority" x="-52156.0" y="69337.0" />
    <node id="node_23" type="priority" x="-7962.5" y="74154.0" />
    <node id="node_24" type="priority" x="-52435.0" y="70055.0" />
    <node id="node_25" type="priority" x="-62605.0" y="57503.0" />
    <node id="node_26" type="priority" x="-69682.0" y="43127.0" />
    <node id="node_27" type="priority" x="-128030.0" y="19162.0" />
    <node id="node_28" type="priority" x="-80709.0" y="32598.0" />
    <node id="node_29" type="priority" x="-67679.0" y="53505.0" />
    <node id="node_30" type="priority" x="-63310.0" y="57657.0" />
    <node id="node_31" type="priority" x="-68733.0" y="44045.0" />
    <node id="node_32" type="priority" x="-67116.0" y="53266.0" />
    <node id="node_33" type="priority" x="-68501.0" y="43094.0" />
    <node id="node_34" type="priority" x="-67337.0" y="53622.0" />
    <node id="node_35" type="priority" x="-69303.0" y="43902.0" />
    <node id="node_36" type="priority" x="-44406.0" y="71522.0" />
    <node id="node_37" type="priority" x="-45461.0" y="83467.0" />
    <node id="node_38" type="priority" x="-47615.0" y="73936.0" />
    <node id="node_39" type="priority" x="-57041.0" y="69426.0" />
    <node id="node_40" type="priority" x="-46775.0" y="78342.0" />
    <node id="node_41" type="priority" x="-50456.0" y="79326.0" />
    <node id="node_42" type="priority" x="-46703.0" y="74375.0" />
    <node id="node_43" type="priority" x="-45385.0" y="75959.0" />
    <node id="node_44" type="priority" x="-50363.0" y="73454.0" />
    <node id="node_45" type="priority" x="-44315.0" y="72245.0" />
    <node id="node_46" type="priority" x="-58373.0" y="64227.0" />
    <node id="node_47" type="priority" x="-59021.0" y="64153.0" />
    <node id="node_48" type="priority" x="-58406.0" y="64094.0" />
    <node id="node_49" type="priority" x="-58283.0" y="64493.0" />
    <node id="node_50" type="priority" x="-58694.0" y="63891.0" />
    <node id="node_51" type="priority" x="-58827.0" y="63877.0" />
    <node id="node_52" type="priority" x="-58571.0" y="64430.0" />
    <node id="node_53" type="priority" x="-59471.0" y="63679.0" />
    <node id="node_54" type="priority" x="-54296.0" y="52312.0" />
    <node id="node_55" type="priority" x="-54664.0" y="52239.0" />
    <node id="node_56" type="priority" x="30035.0" y="30205.0" />
    <node id="node_57" type="priority" x="-63635.0" y="-7354.3" />
    <node id="node_58" type="priority" x="-60275.0" y="-7365.3" />
    <node id="node_59" type="priority" x="-62301.0" y="-7784.7" />
    <node id="node_60" type="priority" x="-60267.0" y="-6852.0" />
    <node id="node_61" type="priority" x="-64094.0" y="-8586.2" />
    <node id="node_62" type="priority" x="-64596.0" y="-8590.3" />
    <node id="node_63" type="priority" x="-63576.0" y="-8587.4" />
    <node id="node_64" type="priority" x="-64147.0" y="-7222.3" />
    <node id="node_65" type="priority" x="-62668.0" y="-8189.2" />
    <node id="node_66" type="priority" x="-60756.0" y="-7325.8" />
    <node id="node_67" type="priority" x="-63465.0" y="-9090.2" />
    <node id="node_68" type="priority" x="-68760.0" y="-14416.0" />
    <node id="node_69" type="priority" x="-65744.0" y="-12328.0" />
    <node id="node_70" type="priority" x="-78836.0" y="-25627.0" />
    <node id="node_71" type="priority" x="-80148.0" y="-25714.0" />
    <node id="node_72" type="priority" x="-74690.0" y="-19411.0" />
    <node id="node_73" type="priority" x="-83323.0" y="-27171.0" />
    <node id="node_74" type="priority" x="-74912.0" y="-17976.0" />
    <node id="node_75" type="priority" x="-76388.0" y="-19133.0" />
    <node id="node_76" type="unregulated" x="-68424.0" y="-31549.0" />
    <node id="node_77" type="priority" x="-80358.0" y="-24202.0" />
    <node id="node_78" type="priority" x="-79199.0" y="-22497.0" />
    <node id="node_79" type="priority" x="-83039.0" y="-25577.0" />
    <node id="node_80" type="unregulated" x="-68750.0" y="-31429.0" />
    <node id="node_81" type="priority" x="-80814.0" y="-24303.0" />
    <node id="node_82" type="priority" x="-83719.0" y="-26923.0" />
    <node id="node_83" type="priority" x="-82268.0" y="-25842.0" />
    <node id="node_84" type="priority" x="-81177.0" y="-24629.0" />
    <node id="node_85" type="priority" x="-103770.0" y="-20286.0" />
    <node id="node_86" type="priority" x="-100360.0" y="-17695.0" />
    <node id="node_87" type="priority" x="-101080.0" y="-18621.0" />
    <node id="node_88" type="priority" x="-80880.0" y="-28379.0" />
    <node id="node_89" type="priority" x="-78459.0" y="-25025.0" />
    <node id="node_90" type="priority" x="-79064.0" y="-26045.0" />
    <node id="node_91" type="priority" x="-80337.0" y="-27550.0" />
    <node id="node_92" type="priority" x="-82704.0" y="-29971.0" />
    <node id="node_93" type="priority" x="-78539.0" y="-20543.0" />
    <node id="node_94" type="priority" x="-49069.0" y="-34280.0" />
    <node id="node_95" type="priority" x="-51894.0" y="-29640.0" />
    <node id="node_96" type="priority" x="-51594.0" y="-30932.0" />
    <node id="node_97" type="priority" x="-58204.0" y="-27505.0" />
    <node id="node_98" type="priority" x="-50640.0" y="-37605.0" />
    <node id="node_99" type="priority" x="-49083.0" y="-34518.0" />
    <node id="node_100" type="priority" x="-50261.0" y="-32326.0" />
    <node id="node_101" type="priority" x="-59708.0" y="-26584.0" />
    <node id="node_102" type="priority" x="-51539.0" y="-37577.0" />
    <node id="node_103" type="priority" x="-53328.0" y="-36103.0" />
    <node id="node_104" type="priority" x="-53500.0" y="-36332.0" />
    <node id="node_105" type="priority" x="-52487.0" y="-28571.0" />
    <node id="node_106" type="priority" x="-51857.0" y="-29424.0" />
    <node id="node_107" type="priority" x="-53338.0" y="-35920.0" />
    <node id="node_108" type="priority" x="-53112.0" y="-36482.0" />
    <node id="node_109" type="priority" x="-59074.0" y="-27741.0" />
    <node id="node_110" type="priority" x="-52525.0" y="-35826.0" />
    <node id="node_111" type="priority" x="-44535.0" y="-34323.0" />
    <node id="node_112" type="priority" x="-51185.0" y="-30757.0" />
    <node id="node_113" type="priority" x="-59445.0" y="-27119.0" />
    <node id="node_114" type="priority" x="-50533.0" y="-32618.0" />
    <node id="node_115" type="priority" x="-52027.0" y="-29697.0" />
    <node id="node_116" type="priority" x="-51596.0" y="-29678.0" />
    <node id="node_117" type="priority" x="-45238.0" y="-34668.0" />
    <node id="node_118" type="priority" x="-51447.0" y="-30925.0" />
    <node id="node_119" type="priority" x="-58721.0" y="-26249.0" />
    <node id="node_120" type="priority" x="-58098.0" y="-27091.0" />
    <node id="node_121" type="priority" x="-51284.0" y="-31163.0" />
    <node id="node_122" type="priority" x="-49192.0" y="-35511.0" />
    <node id="node_123" type="priority" x="-50395.0" y="-32579.0" />
    <node id="node_124" type="priority" x="-51797.0" y="-35574.0" />
    <node id="node_125" type="priority" x="-58600.0" y="-27767.0" />
    <node id="node_126" type="priority" x="-57801.0" y="-26017.0" />
    <node id="node_127" type="priority" x="-50177.0" y="-32710.0" />
    <node id="node_128" type="priority" x="-42314.0" y="-9536.4" />
    <node id="node_129" type="priority" x="-42990.0" y="-10769.0" />
    <node id="node_130" type="priority" x="-42745.0" y="-11726.0" />
    <node id="node_131" type="priority" x="-42381.0" y="-10073.0" />
    <node id="node_132" type="priority" x="-57200.0" y="-4905.3" />
    <node id="node_133" tl="GS_1052165761" type="traffic_light" x="-14399.0" y="4515.0" />
    <node id="node_134" type="priority" x="-73174.0" y="4340.5" />
    <node id="node_135" type="priority" x="-32409.0" y="-13593.0" />
    <node id="node_136" type="priority" x="-29225.0" y="-20739.0" />
    <node id="node_137" type="priority" x="-29455.0" y="-20416.0" />
    <node id="node_138" type="priority" x="-38583.0" y="9806.0" />
    <node id="node_139" type="priority" x="-74173.0" y="9826.3" />
    <node id="node_140" type="priority" x="-54843.0" y="-4257.8" />
    <node id="node_141" type="priority" x="-71840.0" y="5998.3" />
    <node id="node_142" type="priority" x="-81365.0" y="20115.0" />
    <node id="node_143" type="priority" x="-49977.0" y="855.69" />
    <node id="node_144" type="priority" x="-32857.0" y="-20754.0" />
    <node id="node_145" type="priority" x="-48912.0" y="2849.3" />
    <node id="node_146" type="priority" x="-71387.0" y="4786.0" />
    <node id="node_147" type="priority" x="-56157.0" y="-3361.5" />
    <node id="node_148" type="priority" x="-16532.0" y="-3036.2" />
    <node id="node_149" type="priority" x="-17402.0" y="-24837.0" />
    <node id="node_150" type="priority" x="-56653.0" y="-3477.7" />
    <node id="node_151" type="priority" x="-30331.0" y="-21677.0" />
    <node id="node_152" type="priority" x="-17165.0" y="-24180.0" />
    <node id="node_153" type="priority" x="-49674.0" y="3000.5" />
    <node id="node_154" type="priority" x="-32675.0" y="-14814.0" />
    <node id="node_155" type="priority" x="-29463.0" y="-19876.0" />
    <node id="node_156" type="priority" x="-28683.0" y="-19009.0" />
    <node id="node_157" type="priority" x="-48068.0" y="2166.9" />
    <node id="node_158" type="priority" x="-32420.0" y="-20565.0" />
    <node id="node_159" type="priority" x="-55375.0" y="-3747.5" />
    <node id="node_160" type="priority" x="-32650.0" y="-12783.0" />
    <node id="node_161" type="priority" x="-15508.0" y="5937.9" />
    <node id="node_162" type="priority" x="-72690.0" y="4005.2" />
    <node id="node_163" type="priority" x="-49173.0" y="1362.1" />
    <node id="node_164" type="priority" x="-71149.0" y="5297.4" />
    <node id="node_165" type="priority" x="-73450.0" y="5666.8" />
    <node id="node_166" type="priority" x="-78862.0" y="12830.0" />
    <node id="node_167" type="priority" x="-14744.0" y="3843.3" />
    <node id="node_168" type="priority" x="-73091.0" y="5259.2" />
    <node id="node_169" type="priority" x="-30514.0" y="-20109.0" />
    <node id="node_170" type="priority" x="-82076.0" y="20108.0" />
    <node id="node_171" tl="GS_1052166069" type="traffic_light" x="-15890.0" y="5558.0" />
    <node id="node_172" type="priority" x="-33466.0" y="-14507.0" />
    <node id="node_173" type="priority" x="-71308.0" y="6363.3" />
    <node id="node_174" type="priority" x="-33092.0" y="-13348.0" />
    <node id="node_175" type="priority" x="-49434.0" y="2483.1" />
    <node id="node_176" type="priority" x="-56674.0" y="-3864.2" />
    <node id="node_177" type="priority" x="-73101.0" y="10130.0" />
    <node id="node_178" type="priority" x="-38122.0" y="10185.0" />
    <node id="node_179" type="priority" x="-32550.0" y="-14515.0" />
    <node id="node_180" type="priority" x="-56149.0" y="-2979.0" />
    <node id="node_181" type="priority" x="-30528.0" y="-20996.0" />
    <node id="node_182" type="priority" x="-16904.0" y="4913.4" />
    <node id="node_183" type="priority" x="-30394.0" y="-20605.0" />
    <node id="node_184" type="priority" x="-56372.0" y="-4706.0" />
    <node id="node_185" type="priority" x="-33340.0" y="-14165.0" />
    <node id="node_186" tl="GS_1052166282" type="traffic_light" x="-16793.0" y="4293.4" />
    <node id="node_187" type="priority" x="-51798.0" y="49324.0" />
    <node id="node_188" type="priority" x="-55807.0" y="51044.0" />
    <node id="node_189" type="priority" x="-50393.0" y="53439.0" />
    <node id="node_190" type="priority" x="-44264.0" y="58404.0" />
    <node id="node_191" type="priority" x="-47917.0" y="50633.0" />
    <node id="node_192" type="priority" x="-48477.0" y="51482.0" />
    <node id="node_193" type="priority" x="-46338.0" y="51569.0" />
    <node id="node_194" type="priority" x="-52226.0" y="50999.0" />
    <node id="node_195" type="priority" x="-48883.0" y="51846.0" />
    <node id="node_196" type="priority" x="-43032.0" y="58519.0" />
    <node id="node_197" type="priority" x="-54971.0" y="61403.0" />
    <node id="node_198" type="priority" x="-50003.0" y="52405.0" />
    <node id="node_199" type="priority" x="-47010.0" y="52363.0" />
    <node id="node_200" type="priority" x="-54550.0" y="50491.0" />
    <node id="node_201" type="priority" x="-54969.0" y="60872.0" />
    <node id="node_202" type="priority" x="-49030.0" y="48698.0" />
    <node id="node_203" type="priority" x="-51806.0" y="57603.0" />
    <node id="node_204" type="priority" x="-49073.0" y="49853.0" />
    <node id="node_205" type="priority" x="-51695.0" y="57380.0" />
    <node id="node_206" type="priority" x="-54108.0" y="60648.0" />
    <node id="node_207" type="priority" x="-49930.0" y="51054.0" />
    <node id="node_208" type="priority" x="-53336.0" y="55389.0" />
    <node id="node_209" type="priority" x="-46231.0" y="53572.0" />
    <node id="node_210" type="priority" x="-49485.0" y="51518.0" />
    <node id="node_211" type="priority" x="-54108.0" y="61861.0" />
    <node id="node_212" type="priority" x="-52649.0" y="58295.0" />
    <node id="node_213" type="priority" x="-47338.0" y="52791.0" />
    <node id="node_214" type="priority" x="-50555.0" y="52031.0" />
    <node id="node_215" type="priority" x="-48134.0" y="51021.0" />
    <node id="node_216" type="priority" x="-48681.0" y="48982.0" />
    <node id="node_217" type="priority" x="-45003.0" y="54577.0" />
    <node id="node_218" type="priority" x="-46211.0" y="51313.0" />
    <node id="node_219" type="priority" x="-46648.0" y="51909.0" />
    <node id="node_220" type="priority" x="-47849.0" y="50341.0" />
    <node id="node_221" type="priority" x="-45162.0" y="52247.0" />
    <node id="node_222" type="priority" x="-46435.0" y="56449.0" />
    <node id="node_223" type="priority" x="-55929.0" y="51999.0" />
    <node id="node_224" type="priority" x="-50978.0" y="51624.0" />
    <node id="node_225" type="priority" x="-53074.0" y="50562.0" />
    <node id="node_226" type="priority" x="-45007.0" y="52006.0" />
    <node id="node_227" type="priority" x="-51928.0" y="49089.0" />
    <node id="node_228" type="priority" x="-43123.0" y="56605.0" />
    <node id="node_229" tl="GS_1061695272" type="traffic_light" x="-43292.0" y="59001.0" />
    <node id="node_230" type="priority" x="-54238.0" y="60253.0" />
    <node id="node_231" tl="GS_1061695290" type="traffic_light" x="-43876.0" y="58357.0" />
    <node id="node_232" type="priority" x="-48984.0" y="49205.0" />
    <node id="node_233" type="priority" x="-27411.0" y="-3566.0" />
    <node id="node_234" type="priority" x="-6729.4" y="-8206.0" />
    <node id="node_235" type="priority" x="-5235.8" y="-13361.0" />
    <node id="node_236" type="priority" x="-4304.2" y="-13328.0" />
    <node id="node_237" type="priority" x="-6504.0" y="-8765.7" />
    <node id="node_238" type="priority" x="-5803.1" y="-11507.0" />
    <node id="node_239" type="priority" x="-20860.0" y="-11171.0" />
    <node id="node_240" type="priority" x="-5966.6" y="-10577.0" />
    <node id="node_241" type="priority" x="-27932.0" y="-3732.1" />
    <node id="node_242" type="priority" x="-28920.0" y="-5168.2" />
    <node id="node_243" type="priority" x="-69344.0" y="17833.0" />
    <node id="node_244" type="priority" x="-59283.0" y="15001.0" />
    <node id="node_245" type="priority" x="-69772.0" y="17645.0" />
    <node id="node_246" type="priority" x="-57847.0" y="15080.0" />
    <node id="node_247" type="priority" x="-71450.0" y="19630.0" />
    <node id="node_248" type="priority" x="-69235.0" y="15753.0" />
    <node id="node_249" type="priority" x="-71481.0" y="31589.0" />
    <node id="node_250" type="priority" x="-68792.0" y="16574.0" />
    <node id="node_251" type="priority" x="-73453.0" y="19915.0" />
    <node id="node_252" type="priority" x="-69438.0" y="17565.0" />
    <node id="node_253" type="priority" x="-71594.0" y="30102.0" />
    <node id="node_254" type="priority" x="-80408.0" y="20728.0" />
    <node id="node_255" type="priority" x="-59448.0" y="15433.0" />
    <node id="node_256" type="priority" x="-69860.0" y="16828.0" />
    <node id="node_257" type="priority" x="-71843.0" y="30563.0" />
    <node id="node_258" type="priority" x="-68310.0" y="16036.0" />
    <node id="node_259" type="priority" x="-71783.0" y="19454.0" />
    <node id="node_260" type="priority" x="-69573.0" y="30519.0" />
    <node id="node_261" type="priority" x="-80488.0" y="20124.0" />
    <node id="node_262" type="priority" x="-69908.0" y="17522.0" />
    <node id="node_263" type="priority" x="-68933.0" y="17392.0" />
    <node id="node_264" type="priority" x="-60673.0" y="14045.0" />
    <node id="node_265" type="priority" x="-69024.0" y="30099.0" />
    <node id="node_266" type="priority" x="-70954.0" y="31321.0" />
    <node id="node_267" type="priority" x="-70567.0" y="19209.0" />
    <node id="node_268" type="priority" x="-69210.0" y="16499.0" />
    <node id="node_269" type="priority" x="-68007.0" y="22914.0" />
    <node id="node_270" type="priority" x="-69502.0" y="17610.0" />
    <node id="node_271" type="priority" x="-70720.0" y="19741.0" />
    <node id="node_272" type="priority" x="-68669.0" y="15821.0" />
    <node id="node_273" type="priority" x="-57740.0" y="14682.0" />
    <node id="node_274" type="priority" x="-68510.0" y="16848.0" />
    <node id="node_275" type="priority" x="-69941.0" y="29566.0" />
    <node id="node_276" type="priority" x="-71987.0" y="19429.0" />
    <node id="node_277" type="priority" x="-68137.0" y="15807.0" />
    <node id="node_278" type="priority" x="-70249.0" y="29244.0" />
    <node id="node_279" type="priority" x="-54097.0" y="61093.0" />
    <node id="node_280" type="priority" x="-48500.0" y="63662.0" />
    <node id="node_281" type="priority" x="-48627.0" y="61478.0" />
    <node id="node_282" type="priority" x="-46626.0" y="63045.0" />
    <node id="node_283" type="priority" x="-55899.0" y="61742.0" />
    <node id="node_284" type="priority" x="-53246.0" y="62294.0" />
    <node id="node_285" type="priority" x="-52393.0" y="62609.0" />
    <node id="node_286" type="priority" x="-50111.0" y="62932.0" />
    <node id="node_287" type="priority" x="-47056.0" y="61703.0" />
    <node id="node_288" type="priority" x="-47702.0" y="62283.0" />
    <node id="node_289" type="priority" x="-52456.0" y="58213.0" />
    <node id="node_290" type="priority" x="-48486.0" y="63181.0" />
    <node id="node_291" type="priority" x="-47574.0" y="62831.0" />
    <node id="node_292" type="priority" x="-43434.0" y="59862.0" />
    <node id="node_293" tl="GS_1066742878" type="traffic_light" x="-44015.0" y="59672.0" />
    <node id="node_294" type="priority" x="-44818.0" y="59530.0" />
    <node id="node_295" tl="GS_1066742913" type="traffic_light" x="-44660.0" y="59026.0" />
    <node id="node_296" type="priority" x="-70106.0" y="45712.0" />
    <node id="node_297" type="priority" x="-71221.0" y="45906.0" />
    <node id="node_298" type="priority" x="-72156.0" y="49354.0" />
    <node id="node_299" type="priority" x="-70719.0" y="45854.0" />
    <node id="node_300" type="priority" x="-70356.0" y="44407.0" />
    <node id="node_301" type="priority" x="-72279.0" y="49096.0" />
    <node id="node_302" type="priority" x="-72105.0" y="45014.0" />
    <node id="node_303" type="priority" x="-70587.0" y="45509.0" />
    <node id="node_304" type="priority" x="-70739.0" y="52210.0" />
    <node id="node_305" type="priority" x="-71432.0" y="51815.0" />
    <node id="node_306" type="priority" x="-74796.0" y="47302.0" />
    <node id="node_307" type="priority" x="-12824.0" y="76828.0" />
    <node id="node_308" type="priority" x="-24775.0" y="83478.0" />
    <node id="node_309" type="priority" x="-17948.0" y="77269.0" />
    <node id="node_310" type="priority" x="-19129.0" y="79926.0" />
    <node id="node_311" type="priority" x="-21106.0" y="82500.0" />
    <node id="node_312" type="priority" x="-25009.0" y="81958.0" />
    <node id="node_313" type="priority" x="-23422.0" y="83298.0" />
    <node id="node_314" type="priority" x="-21395.0" y="81036.0" />
    <node id="node_315" type="priority" x="-24834.0" y="82144.0" />
    <node id="node_316" type="priority" x="-17951.0" y="77851.0" />
    <node id="node_317" type="priority" x="-16315.0" y="80832.0" />
    <node id="node_318" type="priority" x="-22814.0" y="81564.0" />
    <node id="node_319" type="priority" x="-12636.0" y="77510.0" />
    <node id="node_320" tl="GS_1067889614" type="traffic_light" x="-12885.0" y="75539.0" />
    <node id="node_321" type="priority" x="-12805.0" y="76269.0" />
    <node id="node_322" type="priority" x="-24697.0" y="82383.0" />
    <node id="node_323" type="priority" x="-15170.0" y="78103.0" />
    <node id="node_324" type="priority" x="-20158.0" y="82192.0" />
    <node id="node_325" type="priority" x="-14055.0" y="76358.0" />
    <node id="node_326" type="priority" x="-18406.0" y="79763.0" />
    <node id="node_327" type="priority" x="-17998.0" y="80702.0" />
    <node id="node_328" type="priority" x="-21910.0" y="83347.0" />
    <node id="node_329" type="priority" x="-13455.0" y="76812.0" />
    <node id="node_330" type="priority" x="-20362.0" y="77716.0" />
    <node id="node_331" type="priority" x="-21369.0" y="81320.0" />
    <node id="node_332" type="priority" x="-20447.0" y="81702.0" />
    <node id="node_333" type="priority" x="-22545.0" y="81922.0" />
    <node id="node_334" type="priority" x="-23229.0" y="83999.0" />
    <node id="node_335" type="priority" x="-22413.0" y="81357.0" />
    <node id="node_336" type="priority" x="-19798.0" y="81988.0" />
    <node id="node_337" type="priority" x="-20281.0" y="78212.0" />
    <node id="node_338" type="priority" x="-17407.0" y="80365.0" />
    <node id="node_339" type="priority" x="-12990.0" y="77188.0" />
    <node id="node_340" type="priority" x="-11648.0" y="77399.0" />
    <node id="node_341" type="priority" x="-24971.0" y="82765.0" />
    <node id="node_342" type="priority" x="-21861.0" y="83770.0" />
    <node id="node_343" type="priority" x="-17708.0" y="80519.0" />
    <node id="node_344" type="priority" x="-12883.0" y="78186.0" />
    <node id="node_345" type="priority" x="-14085.0" y="76736.0" />
    <node id="node_346" type="priority" x="-13767.0" y="75248.0" />
    <node id="node_347" type="priority" x="-12439.0" y="77448.0" />
    <node id="node_348" type="priority" x="-37941.0" y="-72108.0" />
    <node id="node_349" type="priority" x="-27975.0" y="-66740.0" />
    <node id="node_350" type="priority" x="-35678.0" y="-62478.0" />
    <node id="node_351" type="priority" x="-25609.0" y="-59041.0" />
    <node id="node_352" type="priority" x="-24137.0" y="-58093.0" />
    <node id="node_353" type="priority" x="-33156.0" y="-72234.0" />
    <node id="node_354" type="priority" x="-39997.0" y="-67706.0" />
    <node id="node_355" type="priority" x="-37932.0" y="-68191.0" />
    <node id="node_356" type="priority" x="-31553.0" y="-71174.0" />
    <node id="node_357" type="priority" x="-35828.0" y="-72604.0" />
    <node id="node_358" type="priority" x="-33911.0" y="-72448.0" />
    <node id="node_359" type="priority" x="-37892.0" y="-68877.0" />
    <node id="node_360" type="priority" x="-37293.0" y="-72539.0" />
    <node id="node_361" type="priority" x="-27551.0" y="-65980.0" />
    <node id="node_362" type="priority" x="-37273.0" y="-61193.0" />
    <node id="node_363" type="priority" x="-36661.0" y="-61000.0" />
    <node id="node_364" type="priority" x="-29712.0" y="-52901.0" />
    <node id="node_365" type="priority" x="-28170.0" y="-53152.0" />
    <node id="node_366" type="priority" x="-48555.0" y="62306.0" />
    <node id="node_367" type="priority" x="-49138.0" y="62610.0" />
    <node id="node_368" type="priority" x="-47077.0" y="63530.0" />
    <node id="node_369" type="priority" x="-46501.0" y="62683.0" />
    <node id="node_370" type="priority" x="-47123.0" y="64723.0" />
    <node id="node_371" type="priority" x="-47798.0" y="64370.0" />
    <node id="node_372" type="priority" x="-47775.0" y="61383.0" />
    <node id="node_373" type="priority" x="-54665.0" y="61652.0" />
    <node id="node_374" type="priority" x="-51897.0" y="56976.0" />
    <node id="node_375" type="priority" x="-48027.0" y="161150.0" />
    <node id="node_376" type="priority" x="-61231.0" y="135680.0" />
    <node id="node_377" type="priority" x="-48334.0" y="161330.0" />
    <node id="node_378" type="priority" x="-69817.0" y="139280.0" />
    <node id="node_379" type="priority" x="-47581.0" y="162410.0" />
    <node id="node_380" type="priority" x="-52448.0" y="57144.0" />
    <node id="node_381" type="priority" x="109780.0" y="-112680.0" />
    <node id="node_382" type="priority" x="110210.0" y="-113280.0" />
    <node id="node_383" type="priority" x="110060.0" y="-112790.0" />
    <node id="node_384" type="priority" x="110030.0" y="-112750.0" />
    <node id="node_385" type="priority" x="107360.0" y="-114150.0" />
    <node id="node_386" type="priority" x="109830.0" y="-112960.0" />
    <node id="node_387" type="priority" x="107240.0" y="-114460.0" />
    <node id="node_388" type="priority" x="107190.0" y="-114340.0" />
    <node id="node_389" type="priority" x="44600.0" y="-13271.0" />
    <node id="node_390" type="priority" x="16910.0" y="30729.0" />
    <node id="node_391" type="priority" x="-102830.0" y="20792.0" />
    <node id="node_392" type="priority" x="-102320.0" y="20560.0" />
    <node id="node_393" type="priority" x="-117570.0" y="9494.4" />
    <node id="node_394" type="priority" x="-85677.0" y="-9048.3" />
    <node id="node_395" type="priority" x="-87838.0" y="-7122.1" />
    <node id="node_396" type="priority" x="-93446.0" y="-3814.5" />
    <node id="node_397" type="priority" x="-65481.0" y="58760.0" />
    <node id="node_398" type="priority" x="-63669.0" y="56256.0" />
    <node id="node_399" type="priority" x="-61376.0" y="56536.0" />
    <node id="node_400" type="priority" x="-61709.0" y="56442.0" />
    <node id="node_401" type="priority" x="-64782.0" y="58710.0" />
    <node id="node_402" type="priority" x="-65042.0" y="56904.0" />
    <node id="node_403" type="priority" x="-60252.0" y="55168.0" />
    <node id="node_404" type="priority" x="-60079.0" y="55875.0" />
    <node id="node_405" type="priority" x="-59574.0" y="54154.0" />
    <node id="node_406" type="priority" x="-58664.0" y="54442.0" />
    <node id="node_407" type="priority" x="-20847.0" y="-52523.0" />
    <node id="node_408" type="priority" x="-20450.0" y="-49457.0" />
    <node id="node_409" type="priority" x="-20310.0" y="-51733.0" />
    <node id="node_410" type="priority" x="-20963.0" y="-49624.0" />
    <node id="node_411" type="priority" x="-21595.0" y="-49905.0" />
    <node id="node_412" type="priority" x="-21707.0" y="-50486.0" />
    <node id="node_413" type="priority" x="38472.0" y="-60850.0" />
    <node id="node_414" type="priority" x="43900.0" y="-59634.0" />
    <node id="node_415" type="priority" x="-1010.2" y="15178.0" />
    <node id="node_416" type="priority" x="16473.0" y="24730.0" />
    <node id="node_417" type="priority" x="54933.0" y="-42116.0" />
    <node id="node_418" type="priority" x="-32037.0" y="60587.0" />
    <node id="node_419" type="priority" x="-45505.0" y="48926.0" />
    <node id="node_420" tl="GS_1163010482" type="traffic_light" x="-31635.0" y="60543.0" />
    <node id="node_421" type="priority" x="-5963.6" y="-6932.6" />
    <node id="node_422" type="priority" x="16110.0" y="-10465.0" />
    <node id="node_423" type="priority" x="16727.0" y="-21433.0" />