<?xml version='1.0' encoding='UTF-8'?>
<nodes xmlns:xsi="http://www.w3.org/2001/XMLSchema-instance" version="0.27" xsi:noNamespaceSchemaLocation="http://sumo.dlr.de/xsd/nodes_file.xsd">
    <location convBoundary="2208.92,522.44,21219.92,15402.46" netOffset="-224973.31,-2700122.99" origBoundary="54.286966,24.391306,54.609531,24.591038" projParameter="+proj=utm +zone=40 +ellps=WGS84 +datum=WGS84 +units=m +no_defs" />

    <node id="node_0" type="priority" x="24354.0" y="-16575.0" />
    <node id="node_1" type="priority" x="8685.2" y="14635.0" />
    <node id="node_2" type="priority" x="4219.8" y="13955.0" />
    <node id="node_3" tl="GS_1003388266" type="traffic_light" x="-3254.4" y="368.27" />
    <node id="node_4" type="priority" x="360.1" y="-102.87" />
    <node id="node_5" type="priority" x="-3370.4" y="362.59" />
    <node id="node_6" tl="GS_1003388319" type="traffic_light" x="533.2" y="-117.02" />
    <node id="node_7" type="priority" x="-8243.2" y="15593.0" />
    <node id="node_8" type="priority" x="-6184.7" y="15677.0" />
    <node id="node_9" type="priority" x="2141.1" y="10174.0" />
    <node id="node_10" type="priority" x="-26762.0" y="4358.4" />
    <node id="node_11" type="priority" x="-26673.0" y="4335.2" />
    <node id="node_12" type="priority" x="-31687.0" y="-971.51" />
    <node id="node_13" type="priority" x="-28523.0" y="99.127" />
    <node id="node_14" type="unregulated" x="-30177.0" y="280.48" />
    <node id="node_15" type="unregulated" x="-30008.0" y="482.13" />
    <node id="node_16" type="priority" x="-30663.0" y="-603.0" />
    <node id="node_17" type="priority" x="29559.0" y="-13087.0" />
    <node id="node_18" type="priority" x="29467.0" y="-13134.0" />
    <node id="node_19" type="priority" x="-885.43" y="14899.0" />
    <node id="node_20" type="priority" x="-997.32" y="14963.0" />
    <node id="node_21" type="priority" x="-1113.7" y="14932.0" />
    <node id="node_22" type="priority" x="-10138.0" y="14453.0" />
    <node id="node_23" type="priority" x="-798.28" y="15056.0" />
    <node id="node_24" type="priority" x="-10177.0" y="14592.0" />
    <node id="node_25" type="priority" x="-13436.0" y="12494.0" />
    <node id="node_26" type="priority" x="-15173.0" y="8659.0" />
    <node id="node_27" type="priority" x="-25970.0" y="4542.6" />
    <node id="node_28" type="priority" x="-16658.0" y="6171.9" />
    <node id="node_29" type="priority" x="-14240.0" y="11565.0" />
    <node id="node_30" type="priority" x="-13617.0" y="12497.0" />
    <node id="node_31" type="priority" x="-15050.0" y="8955.1" />
    <node id="node_32" type="priority" x="-14097.0" y="11510.0" />
    <node id="node_33" type="priority" x="-14914.0" y="8782.4" />
    <node id="node_34" type="priority" x="-14146.0" y="11585.0" />
    <node id="node_35" type="priority" x="-15177.0" y="8903.7" />
    <node id="node_36" type="priority" x="-8260.6" y="14350.0" />
    <node id="node_37" type="priority" x="-8562.5" y="16403.0" />
    <node id="node_38" type="priority" x="-8824.2" y="14766.0" />
    <node id="node_39" type="priority" x="-11281.0" y="14335.0" />
    <node id="node_40" type="priority" x="-8646.2" y="15453.0" />
    <node id="node_41" type="priority" x="-9468.3" y="16011.0" />
    <node id="node_42" type="priority" x="-8617.6" y="14795.0" />
    <node id="node_43" type="priority" x="-8490.2" y="15191.0" />
    <node id="node_44" type="priority" x="-9456.1" y="14921.0" />
    <node id="node_45" type="priority" x="-8203.1" y="14454.0" />
    <node id="node_46" type="priority" x="-11695.0" y="13750.0" />
    <node id="node_47" type="priority" x="-11894.0" y="13722.0" />
    <node id="node_48" type="priority" x="-11716.0" y="13723.0" />
    <node id="node_49" type="priority" x="-11634.0" y="13820.0" />
    <node id="node_50" type="priority" x="-11802.0" y="13668.0" />
    <node id="node_51" type="priority" x="-11825.0" y="13657.0" />
    <node id="node_52" type="priority" x="-11735.0" y="13821.0" />
    <node id="node_53" type="priority" x="-12018.0" y="13537.0" />
    <node id="node_54" type="priority" x="-11241.0" y="11278.0" />
    <node id="node_55" type="priority" x="-11330.0" y="11253.0" />
    <node id="node_56" type="priority" x="6322.1" y="5872.8" />
    <node id="node_57" type="priority" x="-13821.0" y="-2083.7" />
    <node id="node_58" type="priority" x="-12950.0" y="-2058.0" />
    <node id="node_59" type="priority" x="-13549.0" y="-2191.8" />
    <node id="node_60" type="priority" x="-12904.0" y="-1919.6" />
    <node id="node_61" type="priority" x="-13962.0" y="-2366.9" />
    <node id="node_62" type="priority" x="-14012.0" y="-2261.9" />
    <node id="node_63" type="priority" x="-13811.0" y="-2463.7" />
    <node id="node_64" type="priority" x="-13628.0" y="-2044.7" />
    <node id="node_65" type="priority" x="-13646.0" y="-2354.6" />
    <node id="node_66" type="priority" x="-13089.0" y="-2042.8" />
    <node id="node_67" type="priority" x="-13857.0" y="-2371.9" />
    <node id="node_68" type="priority" x="-14834.0" y="-3734.3" />
    <node id="node_69" type="priority" x="-14267.0" y="-3164.3" />
    <node id="node_70" type="priority" x="-16853.0" y="-6465.9" />
    <node id="node_71" type="priority" x="-17157.0" y="-6696.4" />
    <node id="node_72" type="priority" x="-15825.0" y="-4805.7" />
    <node id="node_73" type="priority" x="-17660.0" y="-6761.4" />
    <node id="node_74" type="priority" x="-16006.0" y="-4482.4" />
    <node id="node_75" type="priority" x="-16290.0" y="-4717.3" />
    <node id="node_76" type="unregulated" x="-14156.0" y="-7057.8" />
    <node id="node_77" type="priority" x="-17037.0" y="-6089.8" />
    <node id="node_78" type="priority" x="-16853.0" y="-5609.0" />
    <node id="node_79" type="priority" x="-17627.0" y="-6397.1" />
    <node id="node_80" type="unregulated" x="-14044.0" y="-6936.9" />
    <node id="node_81" type="priority" x="-17152.0" y="-6119.0" />
    <node id="node_82" type="priority" x="-17760.0" y="-6701.6" />
    <node id="node_83" type="priority" x="-17480.0" y="-6436.9" />
    <node id="node_84" type="priority" x="-17240.0" y="-6191.9" />
    <node id="node_85" type="priority" x="-21313.0" y="-5414.9" />
    <node id="node_86" type="priority" x="-20734.0" y="-4927.6" />
    <node id="node_87" type="priority" x="-20859.0" y="-5125.8" />
    <node id="node_88" type="priority" x="-17234.0" y="-7062.5" />
    <node id="node_89" type="priority" x="-16772.0" y="-6315.1" />
    <node id="node_90" type="priority" x="-16907.0" y="-6564.0" />
    <node id="node_91" type="priority" x="-17065.0" y="-6877.3" />
    <node id="node_92" type="priority" x="-17586.0" y="-7360.6" />
    <node id="node_93" type="priority" x="-16581.0" y="-4969.2" />
    <node id="node_94" type="priority" x="-9526.9" y="-7122.1" />
    <node id="node_95" type="priority" x="-10578.0" y="-6214.2" />
    <node id="node_96" type="priority" x="-10483.0" y="-6523.0" />
    <node id="node_97" type="priority" x="-12049.0" y="-6372.9" />
    <node id="node_98" type="priority" x="-10160.0" y="-7748.1" />
    <node id="node_99" type="priority" x="-9547.3" y="-7199.8" />
    <node id="node_100" type="priority" x="-10029.0" y="-6853.9" />
    <node id="node_101" type="priority" x="-12510.0" y="-6147.8" />
    <node id="node_102" type="priority" x="-10399.0" y="-7826.6" />
    <node id="node_103" type="priority" x="-10741.0" y="-7596.3" />
    <node id="node_104" type="priority" x="-10825.0" y="-7587.3" />
    <node id="node_105" type="priority" x="-10844.0" y="-6060.6" />
    <node id="node_106" type="priority" x="-10561.0" y="-6149.8" />
    <node id="node_107" type="priority" x="-10731.0" y="-7550.8" />
    <node id="node_108" type="priority" x="-10706.0" y="-7655.5" />
    <node id="node_109" type="priority" x="-12287.0" y="-6399.1" />
    <node id="node_110" type="priority" x="-10433.0" y="-7479.3" />
    <node id="node_111" type="priority" x="-8975.9" y="-7037.1" />
    <node id="node_112" type="priority" x="-10387.0" y="-6447.4" />
    <node id="node_113" type="priority" x="-12370.0" y="-6261.0" />
    <node id="node_114" type="priority" x="-10054.0" y="-6951.5" />
    <node id="node_115" type="priority" x="-10602.0" y="-6244.1" />
    <node id="node_116" type="priority" x="-10488.0" y="-6227.5" />
    <node id="node_117" type="priority" x="-9004.9" y="-6915.9" />
    <node id="node_118" type="priority" x="-10436.0" y="-6527.2" />
    <node id="node_119" type="priority" x="-12169.0" y="-6080.6" />
    <node id="node_120" type="priority" x="-12052.0" y="-6275.9" />
    <node id="node_121" type="priority" x="-10381.0" y="-6597.4" />
    <node id="node_122" type="priority" x="-9617.2" y="-7436.8" />
    <node id="node_123" type="priority" x="-10016.0" y="-6927.5" />
    <node id="node_124" type="priority" x="-10273.0" y="-7409.1" />
    <node id="node_125" type="priority" x="-12183.0" y="-6386.1" />
    <node id="node_126" type="priority" x="-11971.0" y="-5946.1" />
    <node id="node_127" type="priority" x="-9937.4" y="-6939.0" />
    <node id="node_128" type="priority" x="-8585.3" y="-2693.8" />
    <node id="node_129" type="priority" x="-8683.0" y="-3052.0" />
    <node id="node_130" type="priority" x="-8587.8" y="-3385.3" />
    <node id="node_131" type="priority" x="-8578.0" y="-2839.7" />
    <node id="node_132" type="priority" x="-12006.0" y="-1409.4" />
    <node id="node_133" tl="GS_1052165761" type="traffic_light" x="-2850.4" y="533.07" />
    <node id="node_134" type="priority" x="-15489.0" y="441.73" />
    <node id="node_135" type="priority" x="-6448.9" y="-3332.9" />
    <node id="node_136" type="priority" x="-5570.1" y="-4886.6" />
    <node id="node_137" type="priority" x="-5615.3" y="-4830.0" />
    <node id="node_138" type="priority" x="-7684.0" y="2079.5" />
    <node id="node_139" type="priority" x="-15917.0" y="1497.1" />
    <node id="node_140" type="priority" x="-11628.0" y="-1285.0" />
    <node id="node_141" type="priority" x="-15476.0" y="759.88" />
    <node id="node_142" type="priority" x="-17242.0" y="3721.4" />
    <node id="node_143" type="priority" x="-10385.0" y="123.46" />
    <node id="node_144" type="priority" x="-6265.9" y="-4838.0" />
    <node id="node_145" type="priority" x="-10245.0" y="456.7" />
    <node id="node_146" type="priority" x="-15281.0" y="482.29" />
    <node id="node_147" type="priority" x="-11851.0" y="-1074.8" />
    <node id="node_148" type="priority" x="-3531.6" y="-840.59" />
    <node id="node_149" type="priority" x="-3487.1" y="-5307.9" />
    <node id="node_150" type="priority" x="-11983.0" y="-1194.4" />
    <node id="node_151" type="priority" x="-5744.2" y="-5145.4" />
    <node id="node_152" type="priority" x="-3473.3" y="-5147.9" />
    <node id="node_153" type="priority" x="-10372.0" y="349.16" />
    <node id="node_154" type="priority" x="-6502.0" y="-3631.3" />
    <node id="node_155" type="priority" x="-5688.1" y="-4694.8" />
    <node id="node_156" type="priority" x="-5624.0" y="-4471.1" />
    <node id="node_157" type="priority" x="-10055.0" y="252.15" />
    <node id="node_158" type="priority" x="-6162.7" y="-4837.9" />
    <node id="node_159" type="priority" x="-11688.0" y="-1160.7" />
    <node id="node_160" type="priority" x="-6506.6" y="-3075.6" />
    <node id="node_161" type="priority" x="-2966.5" y="862.83" />
    <node id="node_162" type="priority" x="-15477.0" y="324.12" />
    <node id="node_163" type="priority" x="-10224.0" y="129.43" />
    <node id="node_164" type="priority" x="-15252.0" y="612.09" />
    <node id="node_165" type="priority" x="-15680.0" y="625.34" />
    <node id="node_166" type="priority" x="-17258.0" y="2010.3" />
    <node id="node_167" type="priority" x="-2921.8" y="359.12" />
    <node id="node_168" type="priority" x="-15606.0" y="561.42" />
    <node id="node_169" type="priority" x="-5849.6" y="-4771.7" />
    <node id="node_170" type="priority" x="-17351.0" y="3735.5" />
    <node id="node_171" tl="GS_1052166069" type="traffic_light" x="-3051.1" y="742.34" />
    <node id="node_172" type="priority" x="-6693.2" y="-3521.1" />
    <node id="node_173" type="priority" x="-15355.0" y="783.54" />
    <node id="node_174" type="priority" x="-6615.3" y="-3241.7" />
    <node id="node_175" type="priority" x="-10421.0" y="211.27" />
    <node id="node_176" type="priority" x="-12017.0" y="-1282.3" />
    <node id="node_177" type="priority" x="-15728.0" y="1597.9" />
    <node id="node_178" type="priority" x="-7570.3" y="2102.8" />
    <node id="node_179" type="priority" x="-6480.6" y="-3561.1" />
    <node id="node_180" type="priority" x="-11754.0" y="-1050.8" />
    <node id="node_181" type="priority" x="-5814.1" y="-4994.0" />
    <node id="node_182" type="priority" x="-3281.1" y="745.69" />
    <node id="node_183" type="priority" x="-5808.0" y="-4917.5" />
    <node id="node_184" type="priority" x="-11818.0" y="-1392.3" />
    <node id="node_185" type="priority" x="-6670.3" y="-3451.7" />
    <node id="node_186" tl="GS_1052166282" type="traffic_light" x="-3381.7" y="663.08" />
    <node id="node_187" type="priority" x="-10842.0" y="10504.0" />
    <node id="node_188" type="priority" x="-11583.0" y="10931.0" />
    <node id="node_189" type="priority" x="-10663.0" y="11606.0" />
    <node id="node_190" type="priority" x="-9060.7" y="12239.0" />
    <node id="node_191" type="priority" x="-9986.1" y="11020.0" />
    <node id="node_192" type="priority" x="-10113.0" y="11310.0" />
    <node id="node_193" type="priority" x="-9545.1" y="11200.0" />
    <node id="node_194" type="priority" x="-10871.0" y="10916.0" />
    <node id="node_195" type="priority" x="-10151.0" y="11420.0" />
    <node id="node_196" type="priority" x="-8742.0" y="12362.0" />
    <node id="node_197" type="priority" x="-10935.0" y="13267.0" />
    <node id="node_198" type="priority" x="-10521.0" y="11356.0" />
    <node id="node_199" type="priority" x="-9720.2" y="11456.0" />
    <node id="node_200" type="priority" x="-11234.0" y="10850.0" />
    <node id="node_201" type="priority" x="-10997.0" y="13345.0" />
    <node id="node_202" type="priority" x="-10279.0" y="10475.0" />
    <node id="node_203" type="priority" x="-11010.0" y="12699.0" />
    <node id="node_204" type="priority" x="-10319.0" y="10798.0" />
    <node id="node_205" type="priority" x="-10997.0" y="12643.0" />
    <node id="node_206" type="priority" x="-10977.0" y="13585.0" />
    <node id="node_207" type="priority" x="-10407.0" y="11157.0" />
    <node id="node_208" type="priority" x="-11448.0" y="12139.0" />
    <node id="node_209" type="priority" x="-9468.2" y="11584.0" />
    <node id="node_210" type="priority" x="-10321.0" y="11299.0" />
    <node id="node_211" type="priority" x="-10828.0" y="13709.0" />
    <node id="node_212" type="priority" x="-11138.0" y="12905.0" />
    <node id="node_213" type="priority" x="-9710.7" y="11551.0" />
    <node id="node_214" type="priority" x="-10597.0" y="11253.0" />
    <node id="node_215" type="priority" x="-10050.0" y="11153.0" />
    <node id="node_216" type="priority" x="-10151.0" y="10545.0" />
    <node id="node_217" type="priority" x="-9251.8" y="11666.0" />
    <node id="node_218" type="priority" x="-9493.1" y="11118.0" />
    <node id="node_219" type="priority" x="-9637.8" y="11329.0" />
    <node id="node_220" type="priority" x="-9936.1" y="10930.0" />
    <node id="node_221" type="priority" x="-9164.2" y="11248.0" />
    <node id="node_222" type="priority" x="-9632.0" y="11917.0" />
    <node id="node_223" type="priority" x="-11664.0" y="11193.0" />
    <node id="node_224" type="priority" x="-10675.0" y="11168.0" />
    <node id="node_225" type="priority" x="-10994.0" y="10805.0" />
    <node id="node_226" type="priority" x="-9105.0" y="11178.0" />
    <node id="node_227" type="priority" x="-10821.0" y="10450.0" />
    <node id="node_228" type="priority" x="-8771.6" y="11977.0" />
    <node id="node_229" tl="GS_1061695272" type="traffic_light" x="-8821.0" y="12424.0" />
    <node id="node_230" type="priority" x="-11090.0" y="13532.0" />
    <node id="node_231" tl="GS_1061695290" type="traffic_light" x="-8941.6" y="12256.0" />
    <node id="node_232" type="priority" x="-10249.0" y="10615.0" />
    <node id="node_233" type="priority" x="-5245.3" y="-746.9" />
    <node id="node_234" type="priority" x="-1676.7" y="-1630.5" />
    <node id="node_235" type="priority" x="-1360.7" y="-2537.6" />
    <node id="node_236" type="priority" x="-1143.1" y="-2761.1" />
    <node id="node_237" type="priority" x="-1741.6" y="-1706.8" />
    <node id="node_238" type="priority" x="-1480.8" y="-2179.4" />
    <node id="node_239" type="priority" x="-4462.2" y="-2433.5" />
    <node id="node_240" type="priority" x="-1545.8" y="-1987.0" />
    <node id="node_241" type="priority" x="-5338.2" y="-796.4" />
    <node id="node_242" type="priority" x="-5431.0" y="-1060.3" />
    <node id="node_243" type="priority" x="-14769.0" y="3426.9" />
    <node id="node_244" type="priority" x="-12235.0" y="2900.0" />
    <node id="node_245" type="priority" x="-16143.0" y="3260.2" />
    <node id="node_246" type="priority" x="-11921.0" y="2880.4" />
    <node id="node_247" type="priority" x="-15317.0" y="4083.3" />
    <node id="node_248" type="priority" x="-14889.0" y="2990.0" />
    <node id="node_249" type="priority" x="-14715.0" y="5949.3" />
    <node id="node_250" type="priority" x="-15639.0" y="3156.1" />
    <node id="node_251" type="priority" x="-15685.0" y="4251.6" />
    <node id="node_252" type="priority" x="-16067.0" y="3243.4" />
    <node id="node_253" type="priority" x="-14800.0" y="5658.4" />
    <node id="node_254" type="priority" x="-17075.0" y="3581.7" />
    <node id="node_255" type="priority" x="-12240.0" y="3001.5" />
    <node id="node_256" type="priority" x="-14761.0" y="3240.0" />
    <node id="node_257" type="priority" x="-14859.0" y="5727.4" />
    <node id="node_258" type="priority" x="-15346.0" y="3102.8" />
    <node id="node_259" type="priority" x="-15403.0" y="4135.9" />
    <node id="node_260" type="priority" x="-14519.0" y="5826.1" />
    <node id="node_261" type="priority" x="-17014.0" y="3407.2" />
    <node id="node_262" type="priority" x="-14896.0" y="3389.7" />
    <node id="node_263" type="priority" x="-15946.0" y="3217.3" />
    <node id="node_264" type="priority" x="-12521.0" y="2761.0" />
    <node id="node_265" type="priority" x="-14418.0" y="5785.4" />
    <node id="node_266" type="priority" x="-14746.0" y="5891.9" />
    <node id="node_267" type="priority" x="-15025.0" y="3898.7" />
    <node id="node_268" type="priority" x="-15665.0" y="3055.5" />
    <node id="node_269" type="priority" x="-13951.0" y="4473.9" />
    <node id="node_270" type="priority" x="-14809.0" y="3374.5" />
    <node id="node_271" type="priority" x="-14895.0" y="3897.3" />
    <node id="node_272" type="priority" x="-15227.0" y="3070.3" />
    <node id="node_273" type="priority" x="-11907.0" y="2792.1" />
    <node id="node_274" type="priority" x="-15734.0" y="3174.5" />
    <node id="node_275" type="priority" x="-14498.0" y="5605.8" />
    <node id="node_276" type="priority" x="-15453.0" y="4162.4" />
    <node id="node_277" type="priority" x="-15393.0" y="3034.0" />
    <node id="node_278" type="priority" x="-14546.0" y="5554.4" />
    <node id="node_279" type="priority" x="-11067.0" y="13915.0" />
    <node id="node_280" type="priority" x="-9869.7" y="13717.0" />
    <node id="node_281" type="priority" x="-9947.7" y="13247.0" />
    <node id="node_282" type="priority" x="-9596.4" y="13444.0" />
    <node id="node_283" type="priority" x="-11263.0" y="13411.0" />
    <node id="node_284" type="priority" x="-10684.0" y="13401.0" />
    <node id="node_285" type="priority" x="-10499.0" y="13432.0" />
    <node id="node_286" type="priority" x="-10073.0" y="13517.0" />
    <node id="node_287" type="priority" x="-9601.3" y="13132.0" />
    <node id="node_288" type="priority" x="-9644.5" y="13299.0" />
    <node id="node_289" type="priority" x="-11079.0" y="12906.0" />
    <node id="node_290" type="priority" x="-9752.8" y="13485.0" />
    <node id="node_291" type="priority" x="-9533.2" y="13373.0" />
    <node id="node_292" type="priority" x="-8856.1" y="12542.0" />
    <node id="node_293" tl="GS_1066742878" type="traffic_light" x="-8980.2" y="12527.0" />
    <node id="node_294" type="priority" x="-9101.5" y="12497.0" />
    <node id="node_295" tl="GS_1066742913" type="traffic_light" x="-9113.8" y="12394.0" />
    <node id="node_296" type="priority" x="-15502.0" y="9232.8" />
    <node id="node_297" type="priority" x="-15667.0" y="9503.1" />
    <node id="node_298" type="priority" x="-15182.0" y="10607.0" />
    <node id="node_299" type="priority" x="-15683.0" y="9333.1" />
    <node id="node_300" type="priority" x="-15409.0" y="9141.3" />
    <node id="node_301" type="priority" x="-15231.0" y="10550.0" />
    <node id="node_302" type="priority" x="-15758.0" y="9633.5" />
    <node id="node_303" type="priority" x="-15590.0" y="9334.7" />
    <node id="node_304" type="priority" x="-14864.0" y="11205.0" />
    <node id="node_305" type="priority" x="-15025.0" y="11076.0" />
    <node id="node_306" type="priority" x="-15749.0" y="10301.0" />
    <node id="node_307" type="priority" x="-1919.4" y="15497.0" />
    <node id="node_308" type="priority" x="-4486.4" y="16601.0" />
    <node id="node_309" type="priority" x="-2914.1" y="15524.0" />
    <node id="node_310" type="priority" x="-3311.5" y="15761.0" />
    <node id="node_311" type="priority" x="-3992.9" y="15918.0" />
    <node id="node_312" type="priority" x="-4501.4" y="16283.0" />
    <node id="node_313" type="priority" x="-4201.2" y="16537.0" />
    <node id="node_314" type="priority" x="-3868.8" y="15972.0" />
    <node id="node_315" type="priority" x="-4471.1" y="16316.0" />
    <node id="node_316" type="priority" x="-2865.7" y="15746.0" />
    <node id="node_317" type="priority" x="-2641.5" y="16108.0" />
    <node id="node_318" type="priority" x="-4058.4" y="16228.0" />
    <node id="node_319" type="priority" x="-1883.4" y="15660.0" />
    <node id="node_320" tl="GS_1067889614" type="traffic_light" x="-1852.7" y="15230.0" />
    <node id="node_321" type="priority" x="-1812.6" y="15436.0" />
    <node id="node_322" type="priority" x="-4451.5" y="16383.0" />
    <node id="node_323" type="priority" x="-2424.3" y="15336.0" />
    <node id="node_324" type="priority" x="-3564.0" y="16270.0" />
    <node id="node_325" type="priority" x="-2118.4" y="15573.0" />
    <node id="node_326" type="priority" x="-3095.7" y="15779.0" />
    <node id="node_327" type="priority" x="-3049.5" y="15972.0" />
    <node id="node_328" type="priority" x="-3890.8" y="16527.0" />
    <node id="node_329" type="priority" x="-2040.3" y="15435.0" />
    <node id="node_330" type="priority" x="-3642.8" y="15450.0" />
    <node id="node_331" type="priority" x="-3837.3" y="16052.0" />
    <node id="node_332" type="priority" x="-3583.8" y="16121.0" />
    <node id="node_333" type="priority" x="-3998.4" y="16305.0" />
    <node id="node_334" type="priority" x="-4119.3" y="16659.0" />
    <node id="node_335" type="priority" x="-3963.6" y="16186.0" />
    <node id="node_336" type="priority" x="-3474.0" y="16241.0" />
    <node id="node_337" type="priority" x="-3727.0" y="15579.0" />
    <node id="node_338" type="priority" x="-2868.7" y="15956.0" />
    <node id="node_339" type="priority" x="-1955.6" y="15619.0" />
    <node id="node_340" type="priority" x="-1647.9" y="15646.0" />
    <node id="node_341" type="priority" x="-4522.0" y="16462.0" />
    <node id="node_342" type="priority" x="-3795.9" y="16577.0" />
    <node id="node_343" type="priority" x="-1980.6" y="15794.0" />
    <node id="node_344" type="priority" x="-2215.4" y="15464.0" />
    <node id="node_345" type="priority" x="-2019.7" y="15104.0" />
    <node id="node_346" type="priority" x="-1860.4" y="15613.0" />
    <node id="node_347" type="priority" x="-7322.0" y="-15105.0" />
    <node id="node_348" type="priority" x="-5773.7" y="-13596.0" />
    <node id="node_349" type="priority" x="-8142.9" y="-13064.0" />
    <node id="node_350" type="priority" x="-5547.3" y="-12192.0" />
    <node id="node_351" type="priority" x="-5318.0" y="-11960.0" />
    <node id="node_352" type="priority" x="-6608.0" y="-14568.0" />
    <node id="node_353" type="priority" x="-8696.2" y="-14687.0" />
    <node id="node_354" type="priority" x="-8082.8" y="-14715.0" />
    <node id="node_355" type="priority" x="-6291.7" y="-14409.0" />
    <node id="node_356" type="priority" x="-6839.8" y="-14915.0" />
    <node id="node_357" type="priority" x="-6776.6" y="-14650.0" />
    <node id="node_358" type="priority" x="-7976.1" y="-14871.0" />
    <node id="node_359" type="priority" x="-7141.3" y="-15067.0" />
    <node id="node_360" type="priority" x="-5689.8" y="-13423.0" />
    <node id="node_361" type="priority" x="-8266.1" y="-12568.0" />
    <node id="node_362" type="priority" x="-8102.2" y="-12520.0" />
    <node id="node_363" type="priority" x="-6483.0" y="-11026.0" />
    <node id="node_364" type="priority" x="-6047.1" y="-11256.0" />
    <node id="node_365" type="priority" x="-9809.1" y="13391.0" />
    <node id="node_366" type="priority" x="-9891.0" y="13462.0" />
    <node id="node_367" type="priority" x="-9294.0" y="13357.0" />
    <node id="node_368" type="priority" x="-9238.2" y="13128.0" />
    <node id="node_369" type="priority" x="-9250.7" y="13685.0" />
    <node id="node_370" type="priority" x="-9407.3" y="13604.0" />
    <node id="node_371" type="priority" x="-9768.6" y="13173.0" />
    <node id="node_372" type="priority" x="-11146.0" y="14055.0" />
    <node id="node_373" type="priority" x="-11073.0" y="12523.0" />
    <node id="node_374" type="priority" x="-8460.4" y="29618.0" />
    <node id="node_375" type="priority" x="-11829.0" y="25075.0" />
    <node id="node_376" type="priority" x="-8525.7" y="29693.0" />
    <node id="node_377" type="priority" x="-13053.0" y="25870.0" />
    <node id="node_378" type="priority" x="-8343.9" y="29906.0" />
    <node id="node_379" type="priority" x="-11256.0" y="12579.0" />
    <node id="node_380" type="priority" x="21542.0" y="-21862.0" />
    <node id="node_381" type="priority" x="21637.0" y="-22015.0" />
    <node id="node_382" type="priority" x="21602.0" y="-21892.0" />
    <node id="node_383" type="priority" x="21600.0" y="-21881.0" />
    <node id="node_384" type="priority" x="21008.0" y="-22081.0" />
    <node id="node_385" type="priority" x="21550.0" y="-21929.0" />
    <node id="node_386" type="priority" x="20988.0" y="-22131.0" />
    <node id="node_387" type="priority" x="20987.0" y="-22118.0" />
    <node id="node_388" type="priority" x="9090.1" y="-1180.0" />
    <node id="node_389" type="priority" x="3718.7" y="6038.0" />
    <node id="node_390" type="priority" x="-21105.0" y="3658.7" />
    <node id="node_391" type="priority" x="-21103.0" y="3547.2" />
    <node id="node_392" type="priority" x="-24221.0" y="2146.3" />
    <node id="node_393" type="priority" x="-18152.0" y="-2834.8" />
    <node id="node_394" type="priority" x="-18680.0" y="-2890.5" />
    <node id="node_395" type="priority" x="-19537.0" y="-2216.3" />
    <node id="node_396" type="priority" x="-13695.0" y="12738.0" />
    <node id="node_397" type="priority" x="-13747.0" y="12323.0" />
    <node id="node_398" type="priority" x="-13130.0" y="12372.0" />
    <node id="node_399" type="priority" x="-13225.0" y="12335.0" />
    <node id="node_400" type="priority" x="-13585.0" y="12712.0" />
    <node id="node_401" type="priority" x="-13983.0" y="12422.0" />
    <node id="node_402" type="priority" x="-12749.0" y="12057.0" />
    <node id="node_403" type="priority" x="-12744.0" y="12227.0" />
    <node id="node_404" type="priority" x="-12569.0" y="11722.0" />
    <node id="node_405" type="priority" x="-12346.0" y="11836.0" />
    <node id="node_406" type="priority" x="-4766.8" y="-10762.0" />
    <node id="node_407" type="priority" x="-4632.3" y="-9953.7" />
    <node id="node_408" type="priority" x="-4661.2" y="-10558.0" />
    <node id="node_409" type="priority" x="-4768.1" y="-9960.8" />
    <node id="node_410" type="priority" x="-4934.5" y="-9979.7" />
    <node id="node_411" type="priority" x="-4930.9" y="-10162.0" />
    <node id="node_412" type="priority" x="7917.8" y="-12126.0" />
    <node id="node_413" type="priority" x="8915.6" y="-12058.0" />
    <node id="node_414" type="priority" x="741.0" y="3113.5" />
    <node id="node_415" type="priority" x="3859.7" y="4836.4" />
    <node id="node_416" type="priority" x="11730.0" y="-7706.7" />
    <node id="node_417" type="priority" x="-6027.0" y="12254.0" />
    <node id="node_418" type="priority" x="-9405.0" y="10407.0" />
    <node id="node_419" tl="GS_1163010482" type="traffic_light" x="-5925.8" y="12212.0" />
    <node id="node_420" type="priority" x="-1574.9" y="-1416.1" />
    <node id="node_421" type="priority" x="3349.1" y="-1633.8" />
    <node id="node_422" type="priority" x="3663.9" y="-3519.5" />
    <node id="node_423" tl="GS_1166168346" type="traffic_light" x="3781.8" y="-3063.1" />
    <node id="node_424" type="priority" x="3655.6" y="-3763.8" />
    <node id="node_425" type="priority" x="4105.2" y="-2707.9" />
    <node id="node_426" type="priority" x="4569.2" y="-3453.9" />
    <node id="node_427" type="priority" x="4205.1" y="-1751.9" />
    <node id="node_428" type="priority" x="4250.4" y="-3353.6" />
    <node id="node_429" type="priority" x="3297.7" y="-1552.8" />
    <node id="node_430" tl="GS_1166168462" type="traffic_light" x="4162.8" y="-3219.0" />
    <node id="node_431" type="priority" x="3584.7" y="-2394.1" />
    <node id="node_432" tl="GS_1166168470" type="traffic_light" x="3948.8" y="-3573.3" />
    <node id="node_433" type="priority" x="3469.5" y="-3907.5" />
    <node id="node_434" tl="GS_1166168480" type="traffic_light" x="3691.3" y="-3359.4" />