<?xml version='1.0' encoding='UTF-8'?>
<nodes xmlns:xsi="http://www.w3.org/2001/XMLSchema-instance" version="0.27" xsi:noNamespaceSchemaLocation="http://sumo.dlr.de/xsd/nodes_file.xsd">
    <location convBoundary="2208.92,522.44,21219.92,15402.46" netOffset="-224973.31,-2700122.99" origBoundary="54.286966,24.391306,54.609531,24.591038" projParameter="+proj=utm +zone=40 +ellps=WGS84 +datum=WGS84 +units=m +no_defs" />

    <node id="-170405842-AddedOffRampNode" type="priority" weight="0.19" weight_num="1.0" weight_sum="0.19" x="17206.4991704" y="3486.7784694"><neighbor edge="-170405842-AddedOffRampEdge" id="1815468819" /></node>
    <node id="-227103756#2-AddedOffRampNode" type="priority" weight="0.25" weight_num="1.0" weight_sum="0.25" x="11818.8060859" y="10409.6997101"><neighbor edge="-227103756#2-AddedOffRampEdge" id="4014928949" /></node>
    <node id="-243197772#5-AddedOffRampNode" type="priority" weight="12.62" weight_num="1.0" weight_sum="12.62" x="11019.7685163" y="10953.6393769"><neighbor edge="-243197772#5-AddedOffRampEdge" id="2629924822" /></node>
    <node id="1003388266" tl="GS_1003388266" type="traffic_light" weight="13.42" weight_num="2.0" weight_sum="26.84" x="9079.53541046" y="7848.49931955"><neighbor edge="434371578#2-AddedOnRampEdge" id="434371578#2-AddedOnRampNode" /></node>
    <node id="1003388268" type="priority" weight="0.9" weight_num="1.0" weight_sum="0.9" x="9576.25603934" y="8097.04396185"><neighbor edge="399098935#10" id="cluster_261674582_261674663_3997888882_3997888886_4325639702_4325639703_4325639707" /><neighbor edge="86374313#0" id="1003388319" /></node>
    <node id="1003388284" type="priority" weight="1.06" weight_num="1.0" weight_sum="1.06" x="9058.77070292" y="7849.84567888"><neighbor edge="24157058#10" id="261674729" /><neighbor edge="86374306#0" id="1003388266" /></node>
    <node id="1003388319" tl="GS_1003388319" type="traffic_light" weight="1.35" weight_num="2.0" weight_sum="2.7" x="9815.93312818" y="7831.24761711"><neighbor edge="434473839#2" id="262109567" /></node>
    <node id="100596053#3-AddedOffRampNode" type="priority" weight="0.18" weight_num="1.0" weight_sum="0.18" x="8270.19754855" y="11973.8818684"><neighbor edge="100596053#3-AddedOffRampEdge" id="3350100170" /></node>
    <node id="100596053#6-AddedOffRampNode" type="priority" weight="1.1" weight_num="1.0" weight_sum="1.1" x="8712.68754855" y="11723.4118684"><neighbor edge="100596053#6-AddedOffRampEdge" id="2927613057" /></node>
    <node id="100596086#4-AddedOnRampNode" type="priority" weight="14.14" weight_num="1.0" weight_sum="14.14" x="9567.74218031" y="10156.1407654"><neighbor edge="100596086#4" id="1463602387" /></node>
    <node id="1024577672" type="priority" weight="1.71" weight_num="1.0" weight_sum="1.71" x="3380.75926359" y="9012.01483188"><neighbor edge="225767557#0" id="2345202416" /><neighbor edge="88172968#2" id="1024577817" /></node>
    <node id="1024577817" type="priority" weight="0.955" weight_num="2.0" weight_sum="1.91" x="3399.47918876" y="8988.258409"><neighbor edge="88172968#3" id="2345185469" /></node>
    <node id="1024797232" type="priority" weight="0.0" weight_num="1.0" weight_sum="0.0" x="3410.52971779" y="7794.90428477"><neighbor edge="-225578302#1" id="2343431519" /></node>
    <node id="1024797388" type="priority" weight="0.22" weight_num="1.0" weight_sum="0.22" x="2393.53971779" y="7618.77428477"><neighbor edge="297008006#0" id="cluster_2343431536_3086389646_3086389647" /><neighbor edge="297008009#0" id="cluster_3008457727_3008457729" /></node>
    <node id="1024797617" type="unregulated" weight="0.0" x="2340.72" y="8113.59"><neighbor edge="-407705232" id="4097292103" /></node>
    <node id="1024797763" type="unregulated" weight="0.03" weight_num="1.0" weight_sum="0.03" x="2343.47106112" y="8104.10255009" />
    <node id="1024798120" type="priority" weight="0.02" weight_num="1.0" weight_sum="0.02" x="3176.09971779" y="7666.07428477"><neighbor edge="-200055772#2" id="cluster_2343431536_3086389646_3086389647" /></node>
    <node id="1026500732" type="priority" weight="0.28" weight_num="1.0" weight_sum="0.28" x="18550.7817134" y="3512.69997042"><neighbor edge="392308203" id="3955614519" /><neighbor edge="88374102#5" id="1026500754" /></node>
    <node id="1026500754" type="priority" weight="0.14" weight_num="2.0" weight_sum="0.28" x="18524.9729613" y="3495.71414483"><neighbor edge="88374102#1" id="3955446587" /></node>
    <node id="1026593915" type="priority" weight="1.525" weight_num="2.0" weight_sum="3.05" x="9086.65164877" y="10856.8469867"><neighbor edge="243197777#1" id="243197777#1-AddedOffRampNode" /></node>
    <node id="1026593918" type="priority" weight="0.695" weight_num="2.0" weight_sum="1.39" x="9063.03567836" y="10802.931774"><neighbor edge="243197776#1" id="2371668303" /></node>
    <node id="1026593919" type="priority" weight="0.39" weight_num="1.0" weight_sum="0.39" x="9070.39046389" y="10847.9200503"><neighbor edge="432445599#13" id="cluster_1837286935_2283105081_2283105083_287420832" /><neighbor edge="88380054" id="1026593918" /></node>
    <node id="1026593951" type="priority" weight="0.07" weight_num="1.0" weight_sum="0.07" x="7357.35626101" y="11461.5322287"><neighbor edge="434507876#6" id="cluster_1068313828_1068313837_4090161660_916385867" /><neighbor edge="77972552" id="1026593958" /></node>
    <node id="1026593953" type="priority" weight="0.03" weight_num="1.0" weight_sum="0.03" x="9125.93619734" y="10844.9404303"><neighbor edge="168449321#1" id="cluster_1837286935_2283105081_2283105083_287420832" /><neighbor edge="88380057" id="1026593915" /></node>
    <node id="1026593958" type="priority" weight="0.315" weight_num="2.0" weight_sum="0.63" x="7388.09754855" y="11534.2918684"><neighbor edge="434513627#1-AddedOnRampEdge" id="434513627#1-AddedOnRampNode" /></node>
    <node id="1026645559" type="priority" weight="0.31" weight_num="2.0" weight_sum="0.62" x="6784.95054272" y="10811.0250948"><neighbor edge="24155938#4" id="1836504293" /></node>
    <node id="1026645578" type="priority" weight="0.39" weight_num="2.0" weight_sum="0.78" x="6456.39016733" y="9833.42051828"><neighbor edge="140647930#15-AddedOnRampEdge" id="140647930#15-AddedOnRampNode" /></node>
    <node id="1026645624" type="priority" weight="1.16" weight_num="2.0" weight_sum="2.32" x="3603.48" y="8780.94"><neighbor edge="250491250#1" id="250491250#1-AddedOffRampNode" /></node>
    <node id="1026645661" type="priority" weight="0.133333333333" weight_num="3.0" weight_sum="0.4" x="5878.48612529" y="9286.69450941"><neighbor edge="-24175613#3" id="261809957" /><neighbor edge="24175613#4" id="1394625401" /><neighbor edge="88383196" id="261810062" /></node>
    <node id="1026646011" type="priority" weight="0.045" weight_num="2.0" weight_sum="0.09" x="6502.12054272" y="10505.0050948"><neighbor edge="26411253#15-AddedOnRampEdge" id="26411253#15-AddedOnRampNode" /></node>
    <node id="1026646185" type="priority" weight="0.085" weight_num="2.0" weight_sum="0.17" x="6741.46054272" y="10825.2550948"><neighbor edge="-88383214#5" id="1111319502" /><neighbor edge="88383207#1" id="1026645559" /></node>
    <node id="1026646224" type="priority" weight="2.81" weight_num="1.0" weight_sum="2.81" x="6490.10548187" y="9875.88173511"><neighbor edge="140647930#12" id="cluster_1836218956_2137504135_2137504136_918159573" /><neighbor edge="88383215" id="1026646515" /></node>
    <node id="1026646233" type="priority" weight="0.12" weight_num="1.0" weight_sum="0.12" x="6526.62054272" y="10477.2150948"><neighbor edge="26411253#14" id="1026646011" /><neighbor edge="88383165#0" id="1026646387" /></node>
    <node id="1026646302" type="priority" weight="0.17" weight_num="1.0" weight_sum="0.17" x="6506.88754656" y="9834.85272784"><neighbor edge="26411228#5" id="cluster_1836218956_2137504135_2137504136_918159573" /><neighbor edge="88383176" id="1836778886" /></node>
    <node id="1026646387" type="priority" weight="0.245" weight_num="2.0" weight_sum="0.49" x="6530.72054272" y="10505.1650948"><neighbor edge="88383165#1" id="1026646011" /><neighbor edge="88383214#0" id="1836504270" /></node>
    <node id="1026646515" type="priority" weight="0.145" weight_num="2.0" weight_sum="0.29" x="6467.23827794" y="9884.14773601"><neighbor edge="26411228#8" id="2137504137" /></node>
    <node id="1026714663" type="priority" weight="0.08" weight_num="1.0" weight_sum="0.08" x="7910.31754855" y="11682.9718684"><neighbor edge="24214983#4" id="262189157" /><neighbor edge="88385868#0" id="262189156" /></node>
    <node id="1026714666" type="priority" weight="0.275" weight_num="2.0" weight_sum="0.55" x="8044.32754855" y="12102.8418684"><neighbor edge="434513627#3" id="434513627#3-AddedOffRampNode" /></node>
    <node id="1026714706" type="priority" weight="0.13" weight_num="1.0" weight_sum="0.13" x="7750.53754855" y="11798.6218684"><neighbor edge="100596053#1" id="1026714899" /><neighbor edge="24214983#0" id="1026714663" /></node>
    <node id="1026714719" type="priority" weight="0.06" weight_num="2.0" weight_sum="0.12" x="7162.08592302" y="11401.3596155"><neighbor edge="172962223#1" id="799283791" /></node>
    <node id="1026714738" type="priority" weight="0.18" weight_num="1.0" weight_sum="0.18" x="8071.61754855" y="11955.0518684"><neighbor edge="100596053#3" id="100596053#3-AddedOffRampNode" /><neighbor edge="287441155" id="2910447816" /></node>
    <node id="1026714743" type="priority" weight="0.22" weight_num="1.0" weight_sum="0.22" x="7703.76137398" y="11804.4451485"><neighbor edge="88385873#0" id="cluster_1068313828_1068313837_4090161660_916385867" /></node>
    <node id="1026714899" type="priority" weight="0.095" weight_num="2.0" weight_sum="0.19" x="7831.85754855" y="11855.5818684"><neighbor edge="100596053#2" id="1026714738" /></node>
    <node id="1026714967" type="priority" weight="0.09" weight_num="2.0" weight_sum="0.18" x="8116.30621458" y="11821.2358117"><neighbor edge="-26543919" id="261649440" /><neighbor edge="328198244#0" id="3350092778" /></node>
    <node id="1026714971" type="priority" weight="0.51" weight_num="1.0" weight_sum="0.51" x="7588.46754855" y="11682.4118684"><neighbor edge="100596053#0" id="1026714706" /><neighbor edge="434513627#2" id="1026714666" /></node>
    <node id="1026714978" type="priority" weight="0.115" weight_num="2.0" weight_sum="0.23" x="7894.15621458" y="11680.4058117"><neighbor edge="371548888#10" id="1026714899" /></node>
    <node id="1027680400" type="priority" weight="1.62" weight_num="1.0" weight_sum="1.62" x="7099.24871665" y="11072.2655385"><neighbor edge="88474138#5" id="1027680429" /><neighbor edge="88474141" id="1027680414" /></node>
    <node id="1027680402" type="priority" weight="0.48" weight_num="1.0" weight_sum="0.48" x="7062.362014" y="11076.5488754"><neighbor edge="88474138#1" id="1027680423" /><neighbor edge="88474142" id="290279560" /></node>
    <node id="1027680403" type="priority" weight="0.185" weight_num="2.0" weight_sum="0.37" x="7097.29660174" y="11064.0494197"><neighbor edge="88474138#4" id="1027680400" /></node>
    <node id="1027680414" type="priority" weight="0.115" weight_num="2.0" weight_sum="0.23" x="7110.6898316" y="11087.9832894"><neighbor edge="260889554" id="1027680429" /><neighbor edge="88474137#0" id="916391549" /></node>
    <node id="1027680417" type="priority" weight="7.1" weight_num="1.0" weight_sum="7.1" x="7099.46299651" y="11072.422078"><neighbor edge="26485964#0" id="1362815461" /><neighbor edge="88474138#3" id="1027680403" /></node>
    <node id="1027680423" type="priority" weight="0.58" weight_num="2.0" weight_sum="1.16" x="7093.72799596" y="11074.2233721"><neighbor edge="88474138#2" id="1027680417" /></node>
    <node id="1027680429" type="priority" weight="0.52" weight_num="2.0" weight_sum="1.04" x="7090.38139175" y="11088.0974616"><neighbor edge="88474138#6" id="1027680402" /></node>
    <node id="1027695860" type="priority" weight="0.08" weight_num="3.0" weight_sum="0.24" x="7049.59709115" y="11068.212435"><neighbor edge="-296794800" id="3006130340" /><neighbor edge="-88474140#1" id="2137519449" /><neighbor edge="88474140#2" id="290279560" /></node>
    <node id="1027695868" type="priority" weight="2.06" weight_num="1.0" weight_sum="2.06" x="7158.97721789" y="10386.6625315"><neighbor edge="56685726#12" id="3979022562" /><neighbor edge="88477444" id="1027695976" /></node>
    <node id="1027695976" type="priority" weight="1.235" weight_num="2.0" weight_sum="2.47" x="7114.04520692" y="10396.8870209"><neighbor edge="432430373#1" id="1837286926" /></node>
    <node id="1032819771" type="priority" weight="0.106666666667" weight_num="3.0" weight_sum="0.32" x="11307.7041851" y="8837.89959722"><neighbor edge="-27348532#0" id="1813982194" /><neighbor edge="170245241" id="1813982194" /><neighbor edge="27348532#1" id="825411424" /></node>
    <node id="1038949780" type="priority" weight="0.22" weight_num="2.0" weight_sum="0.44" x="6474.92779052" y="7762.47792315"><neighbor edge="282224349#1-AddedOnRampEdge" id="282224349#1-AddedOnRampNode" /></node>
    <node id="1038949782" type="priority" weight="0.605" weight_num="2.0" weight_sum="1.21" x="6620.19205638" y="7781.79132202"><neighbor edge="24167815#1" id="1038949792" /><neighbor edge="89642596#0" id="261765341" /></node>
    <node id="1038949784" type="priority" weight="1.24" weight_num="2.0" weight_sum="2.48" x="6535.00395275" y="7741.0449182"><neighbor edge="282224348#1" id="1038949809" /></node>
    <node id="1038949792" type="priority" weight="2.495" weight_num="2.0" weight_sum="4.99" x="6605.77776519" y="7806.27793121"><neighbor edge="282224348#4" id="282224348#4-AddedOffRampNode" /></node>
    <node id="1038949794" type="priority" weight="0.77" weight_num="2.0" weight_sum="1.54" x="6497.68122008" y="7662.82019193"><neighbor edge="282224355#1" id="4352341614" /></node>
    <node id="1038949799" type="priority" weight="29.89" weight_num="1.0" weight_sum="29.89" x="6496.10342157" y="7722.58294027"><neighbor edge="282213714#18" id="cluster_261663143_261663144_261663234_261663235" /><neighbor edge="89642595" id="1038949794" /></node>
    <node id="1038949802" type="priority" weight="25.255" weight_num="2.0" weight_sum="50.51" x="6506.19458419" y="7710.8445223"><neighbor edge="282224353#1-AddedOnRampEdge" id="282224353#1-AddedOnRampNode" /></node>
    <node id="1038949805" type="priority" weight="20.3" weight_num="1.0" weight_sum="20.3" x="6928.4869056" y="7281.93251863"><neighbor edge="434371440#22" id="cluster_261663143_261663144_261663234_261663235" /><neighbor edge="89642591" id="1038949780" /></node>
    <node id="1038949808" type="priority" weight="89.89" weight_num="1.0" weight_sum="89.89" x="6619.3299542" y="7729.37937843"><neighbor edge="318274914#28" id="cluster_261663143_261663144_261663234_261663235" /><neighbor edge="89642597" id="1038949784" /></node>
    <node id="1038949809" type="priority" weight="1.23" weight_num="1.0" weight_sum="1.23" x="6586.87275278" y="7788.78697143"><neighbor edge="24167815#0" id="1038949782" /><neighbor edge="282224348#3" id="1038949792" /></node>
    <node id="1038949815" type="priority" weight="8.07" weight_num="1.0" weight_sum="8.07" x="6330.18628113" y="7492.92788338"><neighbor edge="297218053#5" id="cluster_261663143_261663144_261663234_261663235" /><neighbor edge="89642590" id="1038949802" /></node>
    <node id="1038949816" type="priority" weight="0.63" weight_num="1.0" weight_sum="0.63" x="6032.07110182" y="7666.85376978"><neighbor edge="24150688#0" id="cluster_261662859_3661823589_3661823590" /><neighbor edge="59988644#0" id="cluster_261662859_3661823589_3661823590" /></node>
    <node id="1038949826" type="priority" weight="6.95" weight_num="2.0" weight_sum="13.9" x="6285.71105348" y="7449.80172304"><neighbor edge="297218053#4" id="297218053#4-AddedOffRampNode" /></node>
    <node id="1039020501" type="priority" weight="0.11" weight_num="3.0" weight_sum="0.33" x="5891.30202244" y="6779.5487072"><neighbor edge="-89667136#2" id="1039211522" /><neighbor edge="89651255#0" id="1039020601" /><neighbor edge="89667136#3" id="1039211547" /></node>
    <node id="1039020601" type="priority" weight="0.38" weight_num="2.0" weight_sum="0.76" x="5609.17830414" y="6796.07842941"><neighbor edge="-89651331" id="1039020501" /><neighbor edge="394516176#1" id="261673730" /></node>
    <node id="1039154231" type="priority" weight="0.325" weight_num="2.0" weight_sum="0.65" x="5926.30446048" y="7116.57002182"><neighbor edge="24164316#1" id="261673731" /><neighbor edge="89664861#0" id="1039154426" /></node>
    <node id="1039154404" type="priority" weight="0.27" weight_num="3.0" weight_sum="0.81" x="5434.59830414" y="6877.61842941"><neighbor edge="-24164319#4" id="261735339" /><neighbor edge="24164319#5" id="261735341" /><neighbor edge="89664892" id="1039155231" /></node>
    <node id="1039154426" type="priority" weight="0.0633333333333" weight_num="3.0" weight_sum="0.19" x="5897.91543428" y="7280.89622116"><neighbor edge="-89664861#0" id="1039154231" /><neighbor edge="89664861#1" id="261735295" /><neighbor edge="89664871" id="1039154598" /></node>
    <node id="1039154598" type="priority" weight="0.02" weight_num="1.0" weight_sum="0.02" x="5770.55543428" y="7308.93622116"><neighbor edge="-89664871" id="1039154426" /></node>
    <node id="1039154670" type="unregulated" weight="0.0" x="6684.85" y="6076.76"><neighbor edge="24164684#0" id="cluster_261738270_261738271" /></node>
    <node id="1039154728" type="priority" weight="0.115" weight_num="2.0" weight_sum="0.23" x="5608.55830414" y="6846.49842941"><neighbor edge="-89664854#1" id="1039155187" /><neighbor edge="24164318#1" id="261735318" /></node>
    <node id="1039154826" type="priority" weight="0.27" weight_num="3.0" weight_sum="0.81" x="5668.90519544" y="6997.43350497"><neighbor edge="-24164317#0" id="261735310" /><neighbor edge="24164317#1" id="261735315" /><neighbor edge="89664854#0" id="1039155187" /></node>
    <node id="1039154880" type="priority" weight="0.0" weight_num="1.0" weight_sum="0.0" x="5495.06519544" y="6928.78350497"><neighbor edge="-89664889" id="1039155444" /></node>
    <node id="1039155143" type="unregulated" weight="0.03" weight_num="1.0" weight_sum="0.03" x="6274.19499152" y="6563.0107272" />
    <node id="1039155187" type="priority" weight="0.276666666667" weight_num="3.0" weight_sum="0.83" x="5616.30519544" y="6879.91350497"><neighbor edge="-24164324#4" id="1039155450" /><neighbor edge="-89664854#0" id="1039154826" /><neighbor edge="89664854#1" id="1039154728" /></node>
    <node id="1039155231" type="priority" weight="0.0" weight_num="1.0" weight_sum="0.0" x="5455.38830414" y="6899.71842941"><neighbor edge="-89664892" id="1039154404" /></node>
    <node id="1039155444" type="priority" weight="0.143333333333" weight_num="3.0" weight_sum="0.43" x="5511.98519544" y="6878.26350497"><neighbor edge="-24164324#1" id="261735341" /><neighbor edge="24164324#2" id="261735343" /><neighbor edge="89664889" id="1039154880" /></node>
    <node id="1039155450" type="priority" weight="0.226666666667" weight_num="3.0" weight_sum="0.68" x="5595.84519544" y="6902.17350497"><neighbor edge="-24164324#3" id="261735343" /><neighbor edge="-24164325" id="261735343" /><neighbor edge="24164324#4" id="1039155187" /></node>
    <node id="1039169474" type="priority" weight="0.0" weight_num="1.0" weight_sum="0.0" x="5058.01553615" y="6424.53830036"><neighbor edge="-89665791#1" id="1039169596" /></node>
    <node id="1039169596" type="priority" weight="0.0466666666667" weight_num="3.0" weight_sum="0.14" x="4881.66553615" y="6606.22830036"><neighbor edge="-89665791#0" id="cluster_1039169563_261734249" /><neighbor edge="89665791#1" id="1039169474" /><neighbor edge="89665799#0" id="1039169698" /></node>
    <node id="1039169698" type="priority" weight="0.0" weight_num="1.0" weight_sum="0.0" x="4952.86553615" y="6640.45830036"><neighbor edge="-89665799#1" id="1039169596" /></node>
    <node id="1039194280" type="priority" weight="0.0" weight_num="1.0" weight_sum="0.0" x="6013.66202244" y="6637.6187072"><neighbor edge="-89667136#7" id="1039211547" /></node>
    <node id="1039211522" type="priority" weight="0.113333333333" weight_num="3.0" weight_sum="0.34" x="5860.87202244" y="6814.4287072"><neighbor edge="-89667136#1" id="261738184" /><neighbor edge="89667136#2" id="1039020501" /><neighbor edge="89668062#0" id="1039211548" /></node>
    <node id="1039211547" type="priority" weight="0.0733333333333" weight_num="3.0" weight_sum="0.22" x="5911.68202244" y="6755.9087072"><neighbor edge="-89667136#3" id="1039020501" /><neighbor edge="89667136#4" id="1039194280" /><neighbor edge="89668089#0" id="1039211649" /></node>
    <node id="1039211548" type="priority" weight="0.0" weight_num="1.0" weight_sum="0.0" x="5982.15202244" y="6944.8587072"><neighbor edge="-89668062#2" id="1039211522" /></node>
    <node id="1039211649" type="priority" weight="0.02" weight_num="1.0" weight_sum="0.02" x="6116.47202244" y="6926.9287072"><neighbor edge="-89668089#2" id="1039211547" /></node>
    <node id="1039227951" type="priority" weight="0.0" weight_num="1.0" weight_sum="0.0" x="5646.45543428" y="7417.89622116"><neighbor edge="24164311#0" id="261735295" /></node>
    <node id="1040646594" type="priority" weight="46.96" weight_num="1.0" weight_sum="46.96" x="6617.63966871" y="7576.22003085"><neighbor edge="282224353#20" id="261763275" /><neighbor edge="89783737#0" id="1040646657" /></node>
    <node id="1040646620" type="priority" weight="0.34" weight_num="2.0" weight_sum="0.68" x="6599.81559731" y="7579.89176234"><neighbor edge="-89783741" id="1040647019" /><neighbor edge="89783762#1" id="1040647040" /></node>
    <node id="1040646625" type="priority" weight="0.09" weight_num="3.0" weight_sum="0.27" x="6684.95903475" y="7468.39704214"><neighbor edge="-89783754#2" id="1040647019" /><neighbor edge="89783738" id="1040647116" /><neighbor edge="89783754#3" id="1040647017" /></node>
    <node id="1040646642" type="priority" weight="0.23" weight_num="1.0" weight_sum="0.23" x="6207.5104969" y="7431.28821142"><neighbor edge="304385373#16" id="cluster_261671925_261671926_261671935_261671936" /><neighbor edge="89783772#0" id="1040647164" /></node>
    <node id="1040646655" type="priority" weight="0.26" weight_num="1.0" weight_sum="0.26" x="6367.29001915" y="7316.5307977"><neighbor edge="24157229#8" id="cluster_261673969_261673970_261674012_261674013" /><neighbor edge="89783742" id="1040646759" /></node>
    <node id="1040646657" type="priority" weight="0.65" weight_num="2.0" weight_sum="1.3" x="6618.55902375" y="7562.77543511"><neighbor edge="-89783744#7" id="261763301" /><neighbor edge="89783737#1" id="261763275" /></node>
    <node id="1040646663" type="priority" weight="34.77" weight_num="1.0" weight_sum="34.77" x="6612.61407068" y="7582.23364693"><neighbor edge="282224353#18" id="1040647305" /><neighbor edge="89783770#0" id="1040647198" /></node>
    <node id="1040646738" type="priority" weight="0.3" weight_num="1.0" weight_sum="0.3" x="6760.81140675" y="6738.86786905"><neighbor edge="297218054#6" id="cluster_261671925_261671926_261671935_261671936" /><neighbor edge="89783782" id="1040647012" /></node>
    <node id="1040646759" type="priority" weight="0.135" weight_num="2.0" weight_sum="0.27" x="6873.83238441" y="6664.0955347"><neighbor edge="304385373#12" id="1040646839" /></node>
    <node id="1040646768" type="priority" weight="2.81" weight_num="3.0" weight_sum="8.43" x="6577.94635125" y="7020.13877898"><neighbor edge="-24167560#0" id="1040646839" /><neighbor edge="24167560#1" id="1040646783" /><neighbor edge="89783744#0" id="1040646807" /></node>
    <node id="1040646783" type="priority" weight="1.11" weight_num="2.0" weight_sum="2.22" x="6556.44102923" y="7020.56532081"><neighbor edge="-24167560#1" id="1040646768" /><neighbor edge="304385373#14" id="261763279" /></node>
    <node id="1040646784" type="priority" weight="0.0" weight_num="1.0" weight_sum="0.0" x="6575.53903475" y="7598.28704214"><neighbor edge="89783754#0" id="261763300" /></node>
    <node id="1040646801" type="priority" weight="32.17" weight_num="1.0" weight_sum="32.17" x="6602.77019291" y="7593.77320847"><neighbor edge="282224353#14" id="1040647040" /><neighbor edge="89783762#0" id="1040646620" /></node>
    <node id="1040646807" type="priority" weight="0.216666666667" weight_num="3.0" weight_sum="0.65" x="6587.33903475" y="7028.12704214"><neighbor edge="-89783744#0" id="1040646768" /><neighbor edge="89783732" id="261763280" /><neighbor edge="89783744#1" id="261763292" /></node>
    <node id="1040646839" type="priority" weight="0.2" weight_num="2.0" weight_sum="0.4" x="6573.12401668" y="7000.94903146"><neighbor edge="24167560#0" id="1040646768" /><neighbor edge="304385373#13" id="1040646783" /></node>
    <node id="1040646857" type="priority" weight="0.17" weight_num="1.0" weight_sum="0.17" x="6392.89371314" y="7164.15935453"><neighbor edge="24156891#3" id="cluster_261671925_261671926_261671935_261671936" /><neighbor edge="89783736" id="1040647286" /></node>
    <node id="1040646914" type="priority" weight="0.186666666667" weight_num="3.0" weight_sum="0.56" x="6703.20164554" y="7126.76926263"><neighbor edge="-89783744#3" id="261763292" /><neighbor edge="-89783800" id="1040647267" /><neighbor edge="89783744#4" id="1040647267" /></node>
    <node id="1040646970" type="priority" weight="0.23" weight_num="2.0" weight_sum="0.46" x="6611.90001915" y="7522.5107977"><neighbor edge="24157229#5" id="261763298" /></node>
    <node id="1040646978" type="priority" weight="33.61" weight_num="1.0" weight_sum="33.61" x="6606.94636798" y="7589.01527097"><neighbor edge="282224353#16" id="1040647183" /><neighbor edge="89783791#0" id="1040647116" /></node>
    <node id="1040647012" type="priority" weight="0.08" weight_num="2.0" weight_sum="0.16" x="6759.99140675" y="6677.34786905"><neighbor edge="24156892#10-AddedOnRampEdge" id="24156892#10-AddedOnRampNode" /></node>
    <node id="1040647017" type="priority" weight="0.08" weight_num="3.0" weight_sum="0.24" x="6766.46903475" y="7371.11704214"><neighbor edge="-89783754#3" id="1040646625" /><neighbor edge="89783754#4" id="261763301" /><neighbor edge="89783784" id="1040647198" /></node>
    <node id="1040647019" type="priority" weight="0.126666666667" weight_num="3.0" weight_sum="0.38" x="6630.40903475" y="7533.51704214"><neighbor edge="-89783754#1" id="261763300" /><neighbor edge="89783741" id="1040646620" /><neighbor edge="89783754#2" id="1040646625" /></node>
    <node id="1040647040" type="priority" weight="22.025" weight_num="2.0" weight_sum="44.05" x="6604.54740382" y="7591.78927155"><neighbor edge="282224353#15" id="1040646978" /></node>
    <node id="1040647108" type="priority" weight="54.31" weight_num="1.0" weight_sum="54.31" x="6620.43434113" y="7573.06090709"><neighbor edge="282224353#22" id="cluster_261673971_261673972_261674010_261674011" /><neighbor edge="89783804#0" id="1040646970" /></node>
    <node id="1040647116" type="priority" weight="0.23" weight_num="2.0" weight_sum="0.46" x="6607.14458526" y="7568.94237788"><neighbor edge="-89783738" id="1040646625" /><neighbor edge="89783791#1" id="1040647183" /></node>
    <node id="1040647120" type="priority" weight="0.19" weight_num="2.0" weight_sum="0.38" x="6391.09543514" y="7237.28274656"><neighbor edge="304385373#19" id="261763374" /></node>
    <node id="1040647164" type="priority" weight="2.4" weight_num="2.0" weight_sum="4.8" x="6451.85272849" y="7214.0302197"><neighbor edge="24156891#6" id="261763288" /></node>
    <node id="1040647183" type="priority" weight="24.82" weight_num="2.0" weight_sum="49.64" x="6608.70789279" y="7586.90784046"><neighbor edge="282224353#17" id="1040646663" /></node>
    <node id="1040647196" type="priority" weight="0.0" weight_num="1.0" weight_sum="0.0" x="6884.20903475" y="7197.08704214"><neighbor edge="-89783754#8" id="261763301" /></node>
    <node id="1040647198" type="priority" weight="0.165" weight_num="2.0" weight_sum="0.33" x="6611.66602287" y="7563.07199471"><neighbor edge="-89783784" id="1040647017" /><neighbor edge="89783770#1" id="1040647305" /></node>
    <node id="1040647267" type="priority" weight="0.266666666667" weight_num="3.0" weight_sum="0.8" x="6742.01164554" y="7159.78926263"><neighbor edge="-89783744#4" id="1040646914" /><neighbor edge="89783744#5" id="261763276" /><neighbor edge="89783800" id="1040646914" /></node>
    <node id="1040647286" type="priority" weight="0.175" weight_num="2.0" weight_sum="0.35" x="6437.0754296" y="7154.616411"><neighbor edge="297218054#9-AddedOnRampEdge" id="297218054#9-AddedOnRampNode" /></node>
    <node id="1040647299" type="priority" weight="0.18" weight_num="1.0" weight_sum="0.18" x="6459.20543514" y="7247.00274656"><neighbor edge="24156892#7" id="cluster_261671925_261671926_261671935_261671936" /><neighbor edge="89783769" id="1040647120" /></node>
    <node id="1040647305" type="priority" weight="27.645" weight_num="2.0" weight_sum="55.29" x="6613.76475057" y="7580.85702807"><neighbor edge="282224353#19-AddedOnRampEdge" id="282224353#19-AddedOnRampNode" /></node>
    <node id="1040661947" type="priority" weight="0.965" weight_num="2.0" weight_sum="1.93" x="7765.56366447" y="7492.84188386"><neighbor edge="59988636#8" id="261819183" /><neighbor edge="89784032" id="1040662003" /></node>
    <node id="1040661982" type="priority" weight="0.346666666667" weight_num="3.0" weight_sum="1.04" x="7934.20676764" y="7152.4667136"><neighbor edge="-24177226#3" id="261819185" /><neighbor edge="24177226#4" id="1040662003" /><neighbor edge="89784029" id="1040661983" /></node>
    <node id="1040661983" type="priority" weight="0.03" weight_num="1.0" weight_sum="0.03" x="7882.63676764" y="7215.1567136"><neighbor edge="-89784029" id="1040661982" /></node>