<?xml version='1.0' encoding='UTF-8'?>
<nodes xmlns:xsi="http://www.w3.org/2001/XMLSchema-instance" version="0.27" xsi:noNamespaceSchemaLocation="http://sumo.dlr.de/xsd/edges_file.xsd"><node avg_slowdown_ratio="0.997840172787" id="2751313823" junction="True" old_x="8150.99" old_y="5819.53" type="priority" weight_num="3.0" weight_sum="2.99352051836" x="8093.06795412" x_displacement_sum="-57.9220458751" y="5796.4610233" y_displacement_sum="-23.0689767016" />
    <node avg_slowdown_ratio="0.997120230382" fixed="True" id="263017729" old_x="11900.89" old_y="4926.41" type="priority" weight_num="1.0" weight_sum="0.997120230382" x="11915.6901286" x_displacement_sum="14.8001286088" y="4921.99812497" y_displacement_sum="-4.41187502823" />
    <node avg_slowdown_ratio="0.996040316775" fixed="True" id="263016110" old_x="11872.3" old_y="4818.64" type="priority" weight_num="1.0" weight_sum="0.996040316775" x="11871.440827" x_displacement_sum="-0.85917297712" y="4840.65630291" y_displacement_sum="22.0163029124" />
    <node avg_slowdown_ratio="0.995680345572" fixed="True" id="2981072515" old_x="7001.68" old_y="9831.58" type="priority" weight_num="1.0" weight_sum="0.995680345572" x="7007.55778389" x_displacement_sum="5.87778388782" y="9831.05699357" y_displacement_sum="-0.523006426189" />
    <node avg_slowdown_ratio="0.995680345572" fixed="True" id="4026572320" old_x="5247.66" old_y="7369.46" type="priority" weight_num="1.0" weight_sum="0.995680345572" x="5258.69865963" x_displacement_sum="11.0386596326" y="7356.97565868" y_displacement_sum="-12.4843413195" />
    <node avg_slowdown_ratio="0.99532037437" fixed="True" id="263016163" junction="True" old_x="11827.89" old_y="4711.66" type="priority" weight_num="2.0" weight_sum="1.99064074874" x="11831.2951478" x_displacement_sum="3.40514775694" y="4712.37632129" y_displacement_sum="0.716321291111" />
    <node avg_slowdown_ratio="0.995280569517" fixed="True" id="cluster_1636594565_3926859714" junction="True" old_x="9334.72" old_y="11173.81" type="priority" weight_num="3.0" weight_sum="2.98584170855" x="9340.40451565" x_displacement_sum="5.68451564543" y="11174.9899969" y_displacement_sum="1.17999692154" />
    <node avg_slowdown_ratio="0.99496040317" fixed="True" id="263022603" junction="True" old_x="11912.38" old_y="4947.37" type="priority" weight_num="2.0" weight_sum="1.98992080634" x="11939.6258016" x_displacement_sum="27.2458016272" y="4928.73314173" y_displacement_sum="-18.636858267" />
    <node avg_slowdown_ratio="0.994960403168" fixed="True" id="1788613985" old_x="8083.69" old_y="9423.96" type="priority" weight_num="1.0" weight_sum="0.994960403168" x="8097.40346387" x_displacement_sum="13.7134638726" y="9443.0280822" y_displacement_sum="19.0680822024" />
    <node avg_slowdown_ratio="0.994960403168" fixed="True" id="26411228#12-AddedOnRampNode" old_x="6228.54" old_y="10019.36" type="priority" weight_num="1.0" weight_sum="0.994960403168" x="6139.5883589" x_displacement_sum="-88.9516411009" y="9959.46296183" y_displacement_sum="-59.8970381741" />
    <node avg_slowdown_ratio="0.994901019795" fixed="True" id="cluster_cluster_261668689_261668912_cluster_261668691_261668913" junction="True" old_x="9007.19" old_y="9070.16" tl="gneJ284" type="traffic_light" weight_num="4.0" weight_sum="3.97960407918" x="9007.72868467" x_displacement_sum="0.538684666345" y="9068.18330639" y_displacement_sum="-1.97669360714" />
    <node avg_slowdown_ratio="0.994780417565" fixed="True" id="263016162" junction="True" old_x="11744.26" old_y="4540.26" type="priority" weight_num="2.0" weight_sum="1.98956083513" x="11747.5351265" x_displacement_sum="3.27512654374" y="4541.58290261" y_displacement_sum="1.32290260998" />
    <node avg_slowdown_ratio="0.994601079784" fixed="True" id="1063911843" old_x="9645.48" old_y="7265.5" type="priority" weight_num="1.0" weight_sum="0.994601079784" x="9633.44833126" x_displacement_sum="-12.031668735" y="7289.57635544" y_displacement_sum="24.0763554426" />
    <node avg_slowdown_ratio="0.994480441567" id="261763340" junction="True" old_x="7441.37" old_y="6569.24" type="priority" weight_num="3.0" weight_sum="2.9834413247" x="7384.84465989" x_displacement_sum="-56.5253401101" y="6582.69673945" y_displacement_sum="13.4567394454" />
    <node avg_slowdown_ratio="0.994480441563" id="261763342" junction="True" old_x="7368.47" old_y="6656.43" type="priority" weight_num="3.0" weight_sum="2.98344132469" x="7368.83577889" x_displacement_sum="0.365778892994" y="6723.25988078" y_displacement_sum="66.8298807754" />
    <node avg_slowdown_ratio="0.994360955025" fixed="True" id="4173759211" junction="True" old_x="8863.36" old_y="11522.47" type="priority" weight_num="2.0" weight_sum="1.98872191005" x="8843.61283673" x_displacement_sum="-19.7471632718" y="11520.37348" y_displacement_sum="-2.09652004878" />
    <node avg_slowdown_ratio="0.994240460763" fixed="True" id="400023487#4-AddedOnRampNode" old_x="5294.97" old_y="7437.99" type="priority" weight_num="1.0" weight_sum="0.994240460763" x="5181.48625815" x_displacement_sum="-113.483741853" y="7274.45298984" y_displacement_sum="-163.537010158" />
    <node avg_slowdown_ratio="0.99406047516" fixed="True" id="261702938" junction="True" old_x="5933.69" old_y="7522.52" type="priority" weight_num="2.0" weight_sum="1.98812095032" x="6053.7154319" x_displacement_sum="120.025431896" y="7685.46019836" y_displacement_sum="162.940198355" />
    <node avg_slowdown_ratio="0.99406047516" fixed="True" id="263016247" junction="True" old_x="11641.91" old_y="4324.79" type="priority" weight_num="2.0" weight_sum="1.98812095032" x="11638.9189582" x_displacement_sum="-2.99104183837" y="4330.50358353" y_displacement_sum="5.71358352879" />
    <node avg_slowdown_ratio="0.99400119976" fixed="True" id="2927613057" old_x="8774.36" old_y="11645.26" type="priority" weight_num="1.0" weight_sum="0.99400119976" x="8795.39861185" x_displacement_sum="21.038611848" y="11639.3908461" y_displacement_sum="-5.86915388773" />
    <node avg_slowdown_ratio="0.99400119976" fixed="True" id="3162585229" old_x="9244.23" old_y="11090.36" type="priority" weight_num="1.0" weight_sum="0.99400119976" x="9235.43367321" x_displacement_sum="-8.79632678834" y="11059.8965603" y_displacement_sum="-30.4634397045" />
    <node avg_slowdown_ratio="0.99400119976" fixed="True" id="3976263548" old_x="14348.59" old_y="3914.64" type="priority" weight_num="1.0" weight_sum="0.99400119976" x="14340.9768059" x_displacement_sum="-7.61319407186" y="3925.8132355" y_displacement_sum="11.1732354955" />
    <node avg_slowdown_ratio="0.99400119976" fixed="True" id="811037812" old_x="8963.86" old_y="9025.85" type="priority" weight_num="1.0" weight_sum="0.99400119976" x="8960.41385892" x_displacement_sum="-3.44614107551" y="9037.76534225" y_displacement_sum="11.9153422465" />
    <node avg_slowdown_ratio="0.993880489561" fixed="True" id="1540504597" old_x="7103.5" old_y="10409.87" type="priority" weight_num="1.0" weight_sum="0.993880489561" x="7133.71452989" x_displacement_sum="30.2145298876" y="10395.1847238" y_displacement_sum="-14.6852762258" />
    <node avg_slowdown_ratio="0.99370050396" fixed="True" id="263022704" junction="True" old_x="11305.69" old_y="5656.13" type="priority" weight_num="2.0" weight_sum="1.98740100792" x="11290.2399231" x_displacement_sum="-15.4500769193" y="5675.46960065" y_displacement_sum="19.3396006464" />
    <node avg_slowdown_ratio="0.99352051836" id="4173759210" junction="True" old_x="8838.84" old_y="11521.17" type="priority" weight_num="2.0" weight_sum="1.98704103672" x="8962.10621816" x_displacement_sum="123.266218164" y="11509.5989988" y_displacement_sum="-11.5710012136" />
    <node avg_slowdown_ratio="0.993520518359" fixed="True" id="2137504139" old_x="6378.61" old_y="9937.33" type="priority" weight_num="1.0" weight_sum="0.993520518359" x="6392.3703548" x_displacement_sum="13.7603547953" y="9934.30747445" y_displacement_sum="-3.02252555188" />
    <node avg_slowdown_ratio="0.993520518359" fixed="True" id="318346884#9-AddedOffRampNode" old_x="11833.96" old_y="4726.28" type="priority" weight_num="1.0" weight_sum="0.993520518359" x="11822.2368637" x_displacement_sum="-11.7231363222" y="4690.96928794" y_displacement_sum="-35.3107120612" />
    <node avg_slowdown_ratio="0.993401319736" fixed="True" id="3510035110" old_x="8964.93" old_y="11383.58" type="priority" weight_num="1.0" weight_sum="0.993401319736" x="8972.18740296" x_displacement_sum="7.25740295868" y="11375.8162886" y_displacement_sum="-7.76371144763" />
    <node avg_slowdown_ratio="0.993400887855" fixed="True" id="cluster_2927613047_2927613048_2927613049" junction="True" old_x="8857.39" old_y="11678.88" type="priority" weight_num="2.0" weight_sum="1.98680177571" x="8850.82844298" x_displacement_sum="-6.56155701764" y="11675.3803599" y_displacement_sum="-3.49964007071" />
    <node avg_slowdown_ratio="0.99328053756" id="263016176" junction="True" old_x="11880.05" old_y="4477.07" type="priority" weight_num="3.0" weight_sum="2.97984161268" x="11736.0946999" x_displacement_sum="-143.955300144" y="4534.72520771" y_displacement_sum="57.6552077084" />
    <node avg_slowdown_ratio="0.993280537557" id="3162585243" junction="True" old_x="8892.96" old_y="11216.49" type="priority" weight_num="3.0" weight_sum="2.97984161267" x="9034.39678606" x_displacement_sum="141.436786056" y="11350.4641785" y_displacement_sum="133.974178537" />
    <node avg_slowdown_ratio="0.993160979035" fixed="True" id="2410794971" junction="True" old_x="9506.2" old_y="11291.12" type="priority" weight_num="2.0" weight_sum="1.98632195807" x="9504.68887002" x_displacement_sum="-1.51112998192" y="11316.0477082" y_displacement_sum="24.9277082391" />
    <node avg_slowdown_ratio="0.993160547155" fixed="True" id="263022604" junction="True" old_x="12001.84" old_y="5151.14" type="priority" weight_num="2.0" weight_sum="1.98632109431" x="11988.6244835" x_displacement_sum="-13.2155164888" y="5158.29137116" y_displacement_sum="7.1513711603" />
    <node avg_slowdown_ratio="0.993041132595" fixed="True" id="cluster_2928746235_2928747257_2928747258" junction="True" old_x="8952.34" old_y="11750.43" type="priority" weight_num="2.0" weight_sum="1.98608226519" x="8946.40263877" x_displacement_sum="-5.93736123169" y="11748.8786809" y_displacement_sum="-1.55131907889" />
    <node avg_slowdown_ratio="0.993040556757" id="2928747036" junction="True" old_x="8803.14" old_y="11750.65" type="priority" weight_num="3.0" weight_sum="2.97912167027" x="9164.71994974" x_displacement_sum="361.579949737" y="11826.429153" y_displacement_sum="75.779152973" />
    <node avg_slowdown_ratio="0.992801439712" fixed="True" id="1065139769" old_x="6305.31" old_y="9172.54" type="priority" weight_num="1.0" weight_sum="0.992801439712" x="6305.62005693" x_displacement_sum="0.310056933995" y="9195.6839787" y_displacement_sum="23.1439787028" />
    <node avg_slowdown_ratio="0.992801439712" fixed="True" id="2927613055" old_x="8837.21" old_y="11659.89" type="priority" weight_num="1.0" weight_sum="0.992801439712" x="8837.21240515" x_displacement_sum="0.00240514690115" y="11647.9630097" y_displacement_sum="-11.9269903441" />
    <node avg_slowdown_ratio="0.992801439712" fixed="True" id="3926859711" old_x="9353.63" old_y="11175.86" type="priority" weight_num="1.0" weight_sum="0.992801439712" x="9338.93769158" x_displacement_sum="-14.6923084212" y="11177.7201295" y_displacement_sum="1.86012954013" />
    <node avg_slowdown_ratio="0.992801439712" fixed="True" id="4173759212" old_x="8844.02" old_y="11548.63" type="priority" weight_num="1.0" weight_sum="0.992801439712" x="8841.47881317" x_displacement_sum="-2.54118682641" y="11533.3744131" y_displacement_sum="-15.2555868689" />
    <node avg_slowdown_ratio="0.992801439712" fixed="True" id="418671520#2-AddedOnRampNode" old_x="9156.84" old_y="9162.67" type="zipper" weight_num="1.0" weight_sum="0.992801439712" x="9162.62460917" x_displacement_sum="5.78460917098" y="9158.90284349" y_displacement_sum="-3.7671565052" />
    <node avg_slowdown_ratio="0.992800575954" fixed="True" id="1320235607" old_x="12167.49" old_y="5498.38" type="priority" weight_num="1.0" weight_sum="0.992800575954" x="12181.9052303" x_displacement_sum="14.4152302598" y="5460.40544674" y_displacement_sum="-37.9745532632" />
    <node avg_slowdown_ratio="0.992799279928" fixed="True" id="1038949808" old_x="6976.99" old_y="7183.1" type="priority" weight_num="1.0" weight_sum="0.992799279928" x="7008.1819301" x_displacement_sum="31.1919300972" y="7096.8112031" y_displacement_sum="-86.2887969021" />
    <node avg_slowdown_ratio="0.992799279928" fixed="True" id="3881659091" old_x="18666.07" old_y="2195.48" type="priority" weight_num="1.0" weight_sum="0.992799279928" x="18676.4047093" x_displacement_sum="10.3347092888" y="2208.29073893" y_displacement_sum="12.8107389264" />
    <node avg_slowdown_ratio="0.99274097664" fixed="True" id="cluster_1636588566_3926859712_3926859713" junction="True" old_x="9377.61" old_y="11201.27" type="priority" weight_num="2.0" weight_sum="1.98548195328" x="9388.1133116" x_displacement_sum="10.5033115984" y="11197.2039716" y_displacement_sum="-4.06602842246" />
    <node avg_slowdown_ratio="0.99272544231" fixed="True" id="2927613060" junction="True" old_x="8820.88" old_y="11579.91" type="priority" weight_num="2.0" weight_sum="1.98545088462" x="8819.86027839" x_displacement_sum="-1.01972160587" y="11583.0590249" y_displacement_sum="3.14902493789" />
    <node avg_slowdown_ratio="0.992574257425" fixed="True" id="2861666272" junction="True" old_x="6984.3" old_y="7174.02" type="priority" weight_num="2.0" weight_sum="1.98514851485" x="6973.4699927" x_displacement_sum="-10.8300072981" y="7165.27324775" y_displacement_sum="-8.74675224708" />
    <node avg_slowdown_ratio="0.99256120698" fixed="True" id="262111055" junction="True" old_x="8864.46" old_y="8948.75" type="priority" weight_num="2.0" weight_sum="1.98512241396" x="8864.47384398" x_displacement_sum="0.0138439833013" y="8947.98592976" y_displacement_sum="-0.764070236482" />
    <node avg_slowdown_ratio="0.992560595153" id="263016232" junction="True" old_x="11962.26" old_y="4649.22" type="priority" weight_num="3.0" weight_sum="2.97768178546" x="11861.7665286" x_displacement_sum="-100.493471407" y="4717.23948933" y_displacement_sum="68.0194893335" />
    <node avg_slowdown_ratio="0.99256059515" id="2410769336" junction="True" old_x="9342.28" old_y="11310.5" type="priority" weight_num="3.0" weight_sum="2.97768178545" x="9326.83118192" x_displacement_sum="-15.4488180811" y="11272.4442153" y_displacement_sum="-38.0557846835" />
    <node avg_slowdown_ratio="0.992500221943" fixed="True" id="1061694758" junction="True" old_x="7123.69" old_y="10384.51" type="priority" weight_num="3.0" weight_sum="2.97750066583" x="7203.0429171" x_displacement_sum="79.3529171037" y="10381.3029858" y_displacement_sum="-3.20701420618" />
    <node avg_slowdown_ratio="0.99239459583" fixed="True" id="1320235955" junction="True" old_x="12111.89" old_y="5385.79" tl="GS_1320235955" type="traffic_light" weight_num="2.0" weight_sum="1.98478919166" x="12074.556526" x_displacement_sum="-37.3334740424" y="5307.76102696" y_displacement_sum="-78.0289730381" />
    <node avg_slowdown_ratio="0.992349234923" fixed="True" id="3987551558" old_x="7217.45" old_y="10389.01" type="priority" weight_num="1.0" weight_sum="0.992349234923" x="7203.41992466" x_displacement_sum="-14.0300753391" y="10399.7805089" y_displacement_sum="10.7705089333" />
    <node avg_slowdown_ratio="0.99226061915" fixed="True" id="263022694" junction="True" old_x="11213.65" old_y="5578.7" type="priority" weight_num="2.0" weight_sum="1.9845212383" x="11200.3564502" x_displacement_sum="-13.2935497529" y="5594.6827998" y_displacement_sum="15.9827997975" />
    <node avg_slowdown_ratio="0.992201559688" fixed="True" id="262111806" old_x="9071.45" old_y="9012.23" type="priority" weight_num="1.0" weight_sum="0.992201559688" x="9073.17661646" x_displacement_sum="1.72661645572" y="9013.77843365" y_displacement_sum="1.54843365349" />
    <node avg_slowdown_ratio="0.992201559688" fixed="True" id="4280981646" old_x="8922.33" old_y="11441.94" type="priority" weight_num="1.0" weight_sum="0.992201559688" x="8920.20604095" x_displacement_sum="-2.12395905461" y="11438.6247763" y_displacement_sum="-3.31522365123" />
    <node avg_slowdown_ratio="0.99208106543" fixed="True" id="cluster_2928746276_2928746277_2928746278_3791348652" junction="True" old_x="9103.21" old_y="11860.45" type="priority" weight_num="3.0" weight_sum="2.97624319629" x="9106.69558729" x_displacement_sum="3.48558728815" y="11862.7970654" y_displacement_sum="2.34706544106" />
    <node avg_slowdown_ratio="0.99208063355" id="3162585239" junction="True" old_x="9059.86" old_y="11190.87" type="priority" weight_num="3.0" weight_sum="2.97624190065" x="9004.05018111" x_displacement_sum="-55.8098188948" y="11347.7869006" y_displacement_sum="156.916900598" />
    <node avg_slowdown_ratio="0.992034462625" fixed="True" id="261703033" junction="True" old_x="5873.46" old_y="7583.17" type="priority" weight_num="2.0" weight_sum="1.98406892525" x="5880.09120446" x_displacement_sum="6.63120445714" y="7572.39780097" y_displacement_sum="-10.7721990301" />
    <node avg_slowdown_ratio="0.992034462625" fixed="True" id="261765377" junction="True" old_x="7012.6" old_y="7138.3" type="priority" weight_num="2.0" weight_sum="1.98406892525" x="7010.06323459" x_displacement_sum="-2.53676541" y="7148.19898462" y_displacement_sum="9.89898462463" />
    <node avg_slowdown_ratio="0.991901619675" fixed="True" id="288734552" junction="True" old_x="9218.91" old_y="11073.68" type="priority" weight_num="2.0" weight_sum="1.98380323935" x="9221.7531414" x_displacement_sum="2.84314140481" y="11039.4861209" y_displacement_sum="-34.1938791028" />
    <node avg_slowdown_ratio="0.99190064795" fixed="True" id="1845027350" junction="True" old_x="10026.1" old_y="9959.74" type="priority" weight_num="2.0" weight_sum="1.9838012959" x="9993.93251251" x_displacement_sum="-32.1674874891" y="9958.71435113" y_displacement_sum="-1.02564886932" />
    <node avg_slowdown_ratio="0.99190064795" fixed="True" id="263016243" junction="True" old_x="11571.39" old_y="4171.63" type="priority" weight_num="2.0" weight_sum="1.9838012959" x="11571.0052235" x_displacement_sum="-0.384776517933" y="4172.35659002" y_displacement_sum="0.726590015746" />
    <node avg_slowdown_ratio="0.99190064795" fixed="True" id="263022697" junction="True" old_x="11460.52" old_y="5782.21" type="priority" weight_num="2.0" weight_sum="1.9838012959" x="11448.4036381" x_displacement_sum="-12.1163618648" y="5795.46857782" y_displacement_sum="13.2585778248" />
    <node avg_slowdown_ratio="0.991840652747" id="261765430" junction="True" old_x="7050.8" old_y="7116.03" type="priority" weight_num="3.0" weight_sum="2.97552195824" x="6989.6587075" x_displacement_sum="-61.1412924996" y="7162.25260111" y_displacement_sum="46.2226011133" />
    <node avg_slowdown_ratio="0.991720662347" fixed="True" id="1268402934" old_x="5985.49" old_y="7605.37" type="priority" weight_num="1.0" weight_sum="0.991720662347" x="5979.91580867" x_displacement_sum="-5.57419133149" y="7615.6127074" y_displacement_sum="10.2427073983" />
    <node avg_slowdown_ratio="0.991641196597" fixed="True" id="cluster_288734549_288734550" junction="True" old_x="9210.64" old_y="11054.67" type="priority" weight_num="3.0" weight_sum="2.97492358979" x="9242.47320827" x_displacement_sum="31.8332082731" y="11080.441269" y_displacement_sum="25.7712690225" />
    <node avg_slowdown_ratio="0.991601679664" fixed="True" id="1067889655" old_x="9525.12" old_y="11304.68" type="priority" weight_num="1.0" weight_sum="0.991601679664" x="9483.07821204" x_displacement_sum="-42.0417879614" y="11288.842491" y_displacement_sum="-15.8375090447" />
    <node avg_slowdown_ratio="0.991601679664" fixed="True" id="80576087#6-AddedOffRampNode" old_x="14312.73" old_y="3821.31" type="priority" weight_num="1.0" weight_sum="0.991601679664" x="14299.9816481" x_displacement_sum="-12.7483519364" y="3827.49567902" y_displacement_sum="6.18567902278" />
    <node avg_slowdown_ratio="0.991600671947" id="1788613992" junction="True" old_x="8063.15" old_y="9479.84" type="priority" weight_num="3.0" weight_sum="2.97480201584" x="8051.9868953" x_displacement_sum="-11.1631046982" y="9429.33451424" y_displacement_sum="-50.505485765" />
    <node avg_slowdown_ratio="0.991360691147" id="1882098843" junction="True" old_x="8822.35" old_y="11454.27" type="priority" weight_num="3.0" weight_sum="2.97408207344" x="8800.2471184" x_displacement_sum="-22.1028816017" y="11483.4569426" y_displacement_sum="29.1869425733" />
    <node avg_slowdown_ratio="0.991360691147" id="3883228252" junction="True" old_x="9262.73" old_y="9019.05" type="priority" weight_num="3.0" weight_sum="2.97408207344" x="9172.04619415" x_displacement_sum="-90.6838058492" y="9049.70169994" y_displacement_sum="30.651699941" />
    <node avg_slowdown_ratio="0.991360691145" fixed="True" id="4059785095" old_x="13187.6" old_y="3580.52" type="priority" weight_num="1.0" weight_sum="0.991360691145" x="13132.6363786" x_displacement_sum="-54.9636214034" y="3604.74426605" y_displacement_sum="24.2242660514" />
    <node avg_slowdown_ratio="0.991241276585" fixed="True" id="3830472973" junction="True" old_x="14227.65" old_y="3390.35" type="priority" weight_num="2.0" weight_sum="1.98248255317" x="14229.7343831" x_displacement_sum="2.08438307697" y="3389.6448636" y_displacement_sum="-0.70513640177" />
    <node avg_slowdown_ratio="0.991120710343" id="cluster_2371517085_2409470250" junction="True" old_x="9740.39" old_y="10673.71" type="priority" weight_num="3.0" weight_sum="2.97336213103" x="9792.75328874" x_displacement_sum="52.363288738" y="10704.3229886" y_displacement_sum="30.612988647" />
    <node avg_slowdown_ratio="0.99100179964" fixed="True" id="232754823#13-AddedOffRampNode" old_x="9322.85" old_y="11152.16" type="priority" weight_num="1.0" weight_sum="0.99100179964" x="9331.5060512" x_displacement_sum="8.6560512004" y="11162.3745147" y_displacement_sum="10.2145147251" />
    <node avg_slowdown_ratio="0.99100179964" fixed="True" id="289212922#3-AddedOffRampNode" old_x="8905.97" old_y="11464.35" type="priority" weight_num="1.0" weight_sum="0.99100179964" x="8902.09420314" x_displacement_sum="-3.87579685732" y="11462.8847035" y_displacement_sum="-1.46529648019" />
    <node avg_slowdown_ratio="0.99100179964" fixed="True" id="2927613053" old_x="8845.72" old_y="11602.77" type="priority" weight_num="1.0" weight_sum="0.99100179964" x="8832.45221476" x_displacement_sum="-13.2677852362" y="11603.5387576" y_displacement_sum="0.768757550186" />
    <node avg_slowdown_ratio="0.99100179964" fixed="True" id="3791348659" old_x="9229.96" old_y="11995.14" type="priority" weight_num="1.0" weight_sum="0.99100179964" x="9224.55284648" x_displacement_sum="-5.40715351779" y="11981.8690025" y_displacement_sum="-13.2709974752" />
    <node avg_slowdown_ratio="0.99100179964" fixed="True" id="889970677" old_x="8709.93" old_y="7426.13" type="priority" weight_num="1.0" weight_sum="0.99100179964" x="8669.84920814" x_displacement_sum="-40.0807918612" y="7410.73272578" y_displacement_sum="-15.3972742165" />
    <node avg_slowdown_ratio="0.99100071994" fixed="True" id="263022703" junction="True" old_x="11384.22" old_y="5718.71" type="priority" weight_num="2.0" weight_sum="1.98200143988" x="11380.1013773" x_displacement_sum="-4.11862267297" y="5727.71989565" y_displacement_sum="9.00989565484" />
    <node avg_slowdown_ratio="0.99094101266" fixed="True" id="2166854089" junction="True" old_x="7136.61" old_y="10393.83" type="priority" weight_num="2.0" weight_sum="1.98188202532" x="7143.78633344" x_displacement_sum="7.17633344226" y="10331.572434" y_displacement_sum="-62.2575660171" />
    <node avg_slowdown_ratio="0.990841140627" controlledInner="26485964#3 26485970#6" fixed="True" id="cluster_2137519445_2137519446" junction="True" old_x="7255.99" old_y="10878.15" tl="joinedS_26" type="traffic_light" weight_num="3.0" weight_sum="2.97252342188" x="7272.52195601" x_displacement_sum="16.5319560091" y="10863.1246283" y_displacement_sum="-15.0253717488" />
    <node avg_slowdown_ratio="0.99082073434" fixed="True" id="263022733" junction="True" old_x="11535.28" old_y="5844.35" type="priority" weight_num="2.0" weight_sum="1.98164146868" x="11537.30553" x_displacement_sum="2.02552998818" y="5845.24009122" y_displacement_sum="0.890091215668" />
    <node avg_slowdown_ratio="0.99068432761" fixed="True" id="261765414" junction="True" old_x="7348.15" old_y="6744.83" type="priority" weight_num="2.0" weight_sum="1.98136865522" x="7340.67970551" x_displacement_sum="-7.47029449481" y="6731.29573201" y_displacement_sum="-13.5342679882" />
    <node avg_slowdown_ratio="0.99064074874" id="3883219603" junction="True" old_x="9504.94" old_y="11309.88" type="priority" weight_num="2.0" weight_sum="1.98128149748" x="9460.41948808" x_displacement_sum="-44.5205119168" y="11016.8172873" y_displacement_sum="-293.062712741" />
    <node avg_slowdown_ratio="0.990401919616" fixed="True" id="300217922" old_x="9040.54" old_y="9109.36" type="priority" weight_num="1.0" weight_sum="0.990401919616" x="9043.75642704" x_displacement_sum="3.21642704191" y="9103.94512266" y_displacement_sum="-5.4148773353" />
    <node avg_slowdown_ratio="0.990401919615" fixed="True" id="cluster_4004323999_4004324000_4004508658" junction="True" old_x="14282.29" old_y="3670.23" type="priority" weight_num="2.0" weight_sum="1.98080383923" x="14279.0383456" x_displacement_sum="-3.25165437457" y="3667.6233847" y_displacement_sum="-2.60661529743" />
    <node avg_slowdown_ratio="0.99040076794" id="1636588574" junction="True" old_x="9375.04" old_y="11334.57" type="priority" weight_num="3.0" weight_sum="2.97120230382" x="9376.88676966" x_displacement_sum="1.8467696589" y="11304.6773131" y_displacement_sum="-29.8926868675" />
    <node avg_slowdown_ratio="0.99040076794" id="1875931795" junction="True" old_x="8020.88" old_y="9449.13" type="priority" weight_num="3.0" weight_sum="2.97120230382" x="7686.52058228" x_displacement_sum="-334.359417722" y="9276.63929591" y_displacement_sum="-172.490704085" />
    <node avg_slowdown_ratio="0.99040076794" id="2928747055" junction="True" old_x="8985.09" old_y="11889.17" type="priority" weight_num="3.0" weight_sum="2.97120230382" x="8981.90216328" x_displacement_sum="-3.18783672312" y="11856.2941039" y_displacement_sum="-32.8758961092" />
    <node avg_slowdown_ratio="0.990326192185" fixed="True" id="3791348663" junction="True" old_x="9216.42" old_y="11939.18" type="priority" weight_num="2.0" weight_sum="1.98065238437" x="9199.91632217" x_displacement_sum="-16.5036778265" y="11929.0421257" y_displacement_sum="-10.1378742824" />
    <node avg_slowdown_ratio="0.99028077754" fixed="True" id="2569477318" junction="True" old_x="9619.69" old_y="12258.79" type="priority" weight_num="2.0" weight_sum="1.98056155508" x="9623.02159316" x_displacement_sum="3.3315931643" y="12258.9373627" y_displacement_sum="0.147362669632" />
    <node avg_slowdown_ratio="0.99027948151" fixed="True" id="1061695257" junction="True" old_x="7301.07" old_y="10267.2" type="priority" weight_num="2.0" weight_sum="1.98055896302" x="7318.40771516" x_displacement_sum="17.337715159" y="10279.6929583" y_displacement_sum="12.4929582688" />
    <node avg_slowdown_ratio="0.990099009901" fixed="True" id="4325374010" old_x="13547.73" old_y="4136.54" type="priority" weight_num="1.0" weight_sum="0.990099009901" x="13538.1996532" x_displacement_sum="-9.53034679346" y="4131.85981513" y_displacement_sum="-4.6801848726" />
    <node avg_slowdown_ratio="0.989920806335" fixed="True" id="261702955" old_x="5954.75" old_y="7560.03" type="priority" weight_num="1.0" weight_sum="0.989920806335" x="5909.22337978" x_displacement_sum="-45.5266202175" y="7470.75255387" y_displacement_sum="-89.2774461346" />
    <node avg_slowdown_ratio="0.989920806335" fixed="True" id="262632321" junction="True" old_x="18722.35" old_y="2205.87" type="priority" weight_num="2.0" weight_sum="1.97984161267" x="18678.0424939" x_displacement_sum="-44.307506076" y="2113.00570217" y_displacement_sum="-92.8642978297" />
    <node avg_slowdown_ratio="0.989920806335" fixed="True" id="3162585233" old_x="9067.86" old_y="11248.42" type="priority" weight_num="1.0" weight_sum="0.989920806335" x="9064.36717261" x_displacement_sum="-3.49282739179" y="11224.3535993" y_displacement_sum="-24.0664006842" />
    <node avg_slowdown_ratio="0.989920806335" fixed="True" id="gneJ316" old_x="9382.24" old_y="12059.73" type="priority" weight_num="1.0" weight_sum="0.989920806335" x="9389.39891228" x_displacement_sum="7.15891228495" y="12040.9507422" y_displacement_sum="-18.7792578122" />
    <node avg_slowdown_ratio="0.989920806333" id="263022615" junction="True" old_x="11951.31" old_y="5190.48" type="priority" weight_num="3.0" weight_sum="2.969762419" x="11991.9043852" x_displacement_sum="40.5943851521" y="5179.65299332" y_displacement_sum="-10.827006678" />
    <node avg_slowdown_ratio="0.989802039592" fixed="True" id="1807172979" old_x="8956.84" old_y="9102.93" type="priority" weight_num="1.0" weight_sum="0.989802039592" x="8958.66057972" x_displacement_sum="1.82057971562" y="9103.4031143" y_displacement_sum="0.473114299147" />
    <node avg_slowdown_ratio="0.989802039592" fixed="True" id="1845019564" old_x="9177.02" old_y="9178.15" type="priority" weight_num="1.0" weight_sum="0.989802039592" x="9194.10225334" x_displacement_sum="17.0822533417" y="9169.31486927" y_displacement_sum="-8.83513073407" />
    <node avg_slowdown_ratio="0.989802039592" fixed="True" id="2928746242" old_x="8730.84" old_y="12011.52" type="priority" weight_num="1.0" weight_sum="0.989802039592" x="8757.73866725" x_displacement_sum="26.8986672543" y="12021.0346981" y_displacement_sum="9.51469811027" />