<?xml version='1.0' encoding='UTF-8'?>
<nodes xmlns:xsi="http://www.w3.org/2001/XMLSchema-instance" version="0.27" xsi:noNamespaceSchemaLocation="http://sumo.dlr.de/xsd/edges_file.xsd"><node avg_slowdown_ratio="0.997960187183" fixed="True" id="2751313823" junction="True" old_x="8150.99" old_y="5819.53" type="priority" weight_num="3.0" weight_sum="2.99388056155" x="8321.3332473" x_displacement_sum="170.343247305" y="5833.13390891" y_displacement_sum="13.6039089071" />
    <node avg_slowdown_ratio="0.997120230382" id="1067889590" old_x="9594.61" old_y="11687.22" type="priority" weight_num="1.0" weight_sum="0.997120230382" x="9809.04348288" x_displacement_sum="214.433482875" y="11671.5400002" y_displacement_sum="-15.679999818" />
    <node avg_slowdown_ratio="0.997120230382" id="263017729" old_x="11900.89" old_y="4926.41" type="priority" weight_num="1.0" weight_sum="0.997120230382" x="11954.8816487" x_displacement_sum="53.9916487493" y="5208.71582772" y_displacement_sum="282.305827715" />
    <node avg_slowdown_ratio="0.99664026878" fixed="True" id="261763340" junction="True" old_x="7441.37" old_y="6569.24" type="priority" weight_num="3.0" weight_sum="2.98992080634" x="7673.97607936" x_displacement_sum="232.606079356" y="6644.5491891" y_displacement_sum="75.3091890968" />
    <node avg_slowdown_ratio="0.996400719856" id="434371438#6-AddedOffRampNode" old_x="8127.14" old_y="9193.01" type="priority" weight_num="1.0" weight_sum="0.996400719856" x="8304.95953968" x_displacement_sum="177.819539682" y="9037.16765674" y_displacement_sum="-155.842343265" />
    <node avg_slowdown_ratio="0.995680345572" id="263016110" old_x="11872.3" old_y="4818.64" type="priority" weight_num="1.0" weight_sum="0.995680345572" x="11773.7914556" x_displacement_sum="-98.5085444253" y="4493.61991673" y_displacement_sum="-325.020083266" />
    <node avg_slowdown_ratio="0.99550035997" fixed="True" id="263016163" junction="True" old_x="11827.89" old_y="4711.66" type="priority" weight_num="2.0" weight_sum="1.99100071994" x="11660.7586405" x_displacement_sum="-167.131359527" y="4255.54388767" y_displacement_sum="-456.116112326" />
    <node avg_slowdown_ratio="0.995499549955" id="434375951#4-AddedOffRampNode" old_x="11254.4" old_y="5421.87" type="priority" weight_num="1.0" weight_sum="0.995499549955" x="11387.8167129" x_displacement_sum="133.416712867" y="5479.70121336" y_displacement_sum="57.8312133597" />
    <node avg_slowdown_ratio="0.995320050365" fixed="True" id="2861666265" junction="True" old_x="7009.66" old_y="7171.52" type="priority" weight_num="2.0" weight_sum="1.99064010073" x="7085.58918165" x_displacement_sum="75.9291816471" y="7210.52354686" y_displacement_sum="39.0035468574" />
    <node avg_slowdown_ratio="0.995200959808" id="1067889521" old_x="9426.93" old_y="11659.46" type="priority" weight_num="1.0" weight_sum="0.995200959808" x="10175.015545" x_displacement_sum="748.085545043" y="11532.8934839" y_displacement_sum="-126.566516112" />
    <node avg_slowdown_ratio="0.995200959808" id="434371438#1-AddedOnRampNode" old_x="8424.27" old_y="8828.46" type="priority" weight_num="1.0" weight_sum="0.995200959808" x="8371.46502987" x_displacement_sum="-52.8049701341" y="8688.24658735" y_displacement_sum="-140.213412647" />
    <node avg_slowdown_ratio="0.995185101665" fixed="True" id="263022594" junction="True" old_x="11363.57" old_y="5291.06" type="priority" weight_num="2.0" weight_sum="1.99037020333" x="11681.5584545" x_displacement_sum="317.988454514" y="5219.51066276" y_displacement_sum="-71.5493372405" />
    <node avg_slowdown_ratio="0.995094703855" fixed="True" id="261765377" junction="True" old_x="7012.6" old_y="7138.3" type="priority" weight_num="2.0" weight_sum="1.99018940771" x="7127.13201927" x_displacement_sum="114.532019273" y="7037.72220977" y_displacement_sum="-100.57779023" />
    <node avg_slowdown_ratio="0.99508068149" fixed="True" id="1875931808" junction="True" old_x="8246.15" old_y="9531.41" type="priority" weight_num="2.0" weight_sum="1.99016136298" x="8518.51187684" x_displacement_sum="272.361876838" y="9506.38519914" y_displacement_sum="-25.0248008632" />
    <node avg_slowdown_ratio="0.99504950495" id="1038949808" old_x="6976.99" old_y="7183.1" type="priority" weight_num="1.0" weight_sum="0.99504950495" x="6933.17626408" x_displacement_sum="-43.8137359156" y="7307.23769514" y_displacement_sum="124.137695139" />
    <node avg_slowdown_ratio="0.995040588717" fixed="True" id="cluster_1636594565_3926859714" junction="True" old_x="9334.72" old_y="11173.81" type="priority" weight_num="3.0" weight_sum="2.98512176615" x="9195.78856639" x_displacement_sum="-138.93143361" y="11396.7367234" y_displacement_sum="222.926723385" />
    <node avg_slowdown_ratio="0.99482464445" fixed="True" id="1657196938" junction="True" old_x="11884.98" old_y="4887.42" type="priority" weight_num="2.0" weight_sum="1.9896492889" x="11853.5464328" x_displacement_sum="-31.4335671898" y="4946.93415841" y_displacement_sum="59.514158412" />
    <node avg_slowdown_ratio="0.99482448245" fixed="True" id="2861666272" junction="True" old_x="6984.3" old_y="7174.02" type="priority" weight_num="2.0" weight_sum="1.9896489649" x="6980.43657389" x_displacement_sum="-3.86342610864" y="7258.89897236" y_displacement_sum="84.8789723648" />
    <node avg_slowdown_ratio="0.994780417565" fixed="True" id="263022603" junction="True" old_x="11912.38" old_y="4947.37" type="priority" weight_num="2.0" weight_sum="1.98956083513" x="12009.654653" x_displacement_sum="97.2746530463" y="5328.93257848" y_displacement_sum="381.562578485" />
    <node avg_slowdown_ratio="0.994601079784" id="1807172822" old_x="8638.69" old_y="8804.01" type="priority" weight_num="1.0" weight_sum="0.994601079784" x="8764.11383404" x_displacement_sum="125.423834042" y="8911.01370105" y_displacement_sum="107.003701047" />
    <node avg_slowdown_ratio="0.994601079784" id="3162585229" old_x="9244.23" old_y="11090.36" type="priority" weight_num="1.0" weight_sum="0.994601079784" x="9171.1367685" x_displacement_sum="-73.0932315018" y="11186.7428175" y_displacement_sum="96.3828175036" />
    <node avg_slowdown_ratio="0.994600431965" id="26411228#12-AddedOnRampNode" old_x="6228.54" old_y="10019.36" type="priority" weight_num="1.0" weight_sum="0.994600431965" x="6157.56811627" x_displacement_sum="-70.9718837286" y="9981.18044307" y_displacement_sum="-38.1795569347" />
    <node avg_slowdown_ratio="0.994240460765" fixed="True" id="261702938" junction="True" old_x="5933.69" old_y="7522.52" type="priority" weight_num="2.0" weight_sum="1.98848092153" x="6043.2370492" x_displacement_sum="109.547049201" y="7321.2499788" y_displacement_sum="-201.270021196" />
    <node avg_slowdown_ratio="0.994240460765" fixed="True" id="263022604" junction="True" old_x="12001.84" old_y="5151.14" type="priority" weight_num="2.0" weight_sum="1.98848092153" x="11822.3256861" x_displacement_sum="-179.514313879" y="5221.05470432" y_displacement_sum="69.9147043174" />
    <node avg_slowdown_ratio="0.994240460765" fixed="True" id="3791348650" junction="True" old_x="9184.7" old_y="11929.56" type="priority" weight_num="2.0" weight_sum="1.98848092153" x="9150.79262928" x_displacement_sum="-33.9073707229" y="12022.0651895" y_displacement_sum="92.5051895168" />
    <node avg_slowdown_ratio="0.99400119976" id="262111806" old_x="9071.45" old_y="9012.23" type="priority" weight_num="1.0" weight_sum="0.99400119976" x="8859.1149224" x_displacement_sum="-212.335077599" y="8712.7615389" y_displacement_sum="-299.468461099" />
    <node avg_slowdown_ratio="0.99400119976" id="80576087#6-AddedOffRampNode" old_x="14312.73" old_y="3821.31" type="priority" weight_num="1.0" weight_sum="0.99400119976" x="14159.9840612" x_displacement_sum="-152.74593881" y="3661.48964846" y_displacement_sum="-159.820351538" />
    <node avg_slowdown_ratio="0.993880489561" id="1540504597" old_x="7103.5" old_y="10409.87" type="priority" weight_num="1.0" weight_sum="0.993880489561" x="6289.00866952" x_displacement_sum="-814.491330482" y="10282.5049424" y_displacement_sum="-127.365057556" />
    <node avg_slowdown_ratio="0.99388048956" fixed="True" id="263016162" junction="True" old_x="11744.26" old_y="4540.26" type="priority" weight_num="2.0" weight_sum="1.98776097912" x="11662.6927348" x_displacement_sum="-81.5672652225" y="4624.10263749" y_displacement_sum="83.8426374859" />
    <node avg_slowdown_ratio="0.99382089025" fixed="True" id="2410794971" junction="True" old_x="9506.2" old_y="11291.12" type="priority" weight_num="2.0" weight_sum="1.9876417805" x="9441.0490289" x_displacement_sum="-65.1509710983" y="11080.9273511" y_displacement_sum="-210.192648907" />
    <node avg_slowdown_ratio="0.993520518359" id="1320235607" old_x="12167.49" old_y="5498.38" type="priority" weight_num="1.0" weight_sum="0.993520518359" x="12388.9101311" x_displacement_sum="221.42013109" y="5311.73453231" y_displacement_sum="-186.645467692" />
    <node avg_slowdown_ratio="0.993401319736" id="1065139769" old_x="6305.31" old_y="9172.54" type="priority" weight_num="1.0" weight_sum="0.993401319736" x="6205.97316285" x_displacement_sum="-99.3368371536" y="9394.027229" y_displacement_sum="221.487228997" />
    <node avg_slowdown_ratio="0.993401319736" id="2927613057" old_x="8774.36" old_y="11645.26" type="priority" weight_num="1.0" weight_sum="0.993401319736" x="8559.8194423" x_displacement_sum="-214.540557702" y="11657.5434652" y_displacement_sum="12.2834652077" />
    <node avg_slowdown_ratio="0.993401319736" id="3926859711" old_x="9353.63" old_y="11175.86" type="priority" weight_num="1.0" weight_sum="0.993401319736" x="9244.00561456" x_displacement_sum="-109.624385435" y="11346.7044465" y_displacement_sum="170.844446503" />
    <node avg_slowdown_ratio="0.993401319736" id="cluster_3926882183_4325306022" old_x="9835.52" old_y="7445.31" type="priority" weight_num="1.0" weight_sum="0.993401319736" x="9950.90836632" x_displacement_sum="115.388366318" y="7372.49018319" y_displacement_sum="-72.819816814" />
    <node avg_slowdown_ratio="0.993280537557" fixed="True" id="261763464" junction="True" old_x="7141.81" old_y="6931.71" type="priority" weight_num="3.0" weight_sum="2.97984161267" x="7318.91249956" x_displacement_sum="177.102499557" y="6861.54138405" y_displacement_sum="-70.1686159546" />
    <node avg_slowdown_ratio="0.993204612035" fixed="True" id="1320235955" junction="True" old_x="12111.89" old_y="5385.79" tl="GS_1320235955" type="traffic_light" weight_num="2.0" weight_sum="1.98640922407" x="11952.2591922" x_displacement_sum="-159.630807768" y="5075.9079587" y_displacement_sum="-309.882041298" />
    <node avg_slowdown_ratio="0.992801439712" id="1052166021" old_x="9231.81" old_y="7851.4" type="priority" weight_num="1.0" weight_sum="0.992801439712" x="9373.73668404" x_displacement_sum="141.926684042" y="7772.40752559" y_displacement_sum="-78.9924744089" />
    <node avg_slowdown_ratio="0.992801439712" id="1063911843" old_x="9645.48" old_y="7265.5" type="priority" weight_num="1.0" weight_sum="0.992801439712" x="9856.24020492" x_displacement_sum="210.760204917" y="6623.48424884" y_displacement_sum="-642.015751163" />
    <node avg_slowdown_ratio="0.992801439712" id="3510035110" old_x="8964.93" old_y="11383.58" type="priority" weight_num="1.0" weight_sum="0.992801439712" x="9137.00206758" x_displacement_sum="172.072067578" y="11584.6927218" y_displacement_sum="201.112721769" />
    <node avg_slowdown_ratio="0.992801439712" id="4280981646" old_x="8922.33" old_y="11441.94" type="priority" weight_num="1.0" weight_sum="0.992801439712" x="8861.25938645" x_displacement_sum="-61.0706135463" y="11615.1652909" y_displacement_sum="173.225290939" />
    <node avg_slowdown_ratio="0.992800575955" fixed="True" id="263016247" junction="True" old_x="11641.91" old_y="4324.79" type="priority" weight_num="2.0" weight_sum="1.98560115191" x="11509.7675244" x_displacement_sum="-132.142475632" y="4389.32417696" y_displacement_sum="64.5341769559" />
    <node avg_slowdown_ratio="0.992800575954" id="1061694972" old_x="7295.13" old_y="10840.05" type="priority" weight_num="1.0" weight_sum="0.992800575954" x="7119.70180476" x_displacement_sum="-175.428195241" y="11008.4295567" y_displacement_sum="168.379556702" />
    <node avg_slowdown_ratio="0.992800575953" fixed="True" id="4041698469" junction="True" old_x="14679.59" old_y="5619.21" type="priority" weight_num="3.0" weight_sum="2.97840172786" x="14698.1055007" x_displacement_sum="18.5155007424" y="5562.04464682" y_displacement_sum="-57.1653531835" />
    <node avg_slowdown_ratio="0.99270953013" fixed="True" id="261765414" junction="True" old_x="7348.15" old_y="6744.83" type="priority" weight_num="2.0" weight_sum="1.98541906026" x="7311.28099059" x_displacement_sum="-36.869009407" y="7076.01057799" y_displacement_sum="331.180577985" />
    <node avg_slowdown_ratio="0.992680945455" fixed="True" id="cluster_1636588566_3926859712_3926859713" junction="True" old_x="9377.61" old_y="11201.27" type="priority" weight_num="2.0" weight_sum="1.98536189091" x="9238.10814535" x_displacement_sum="-139.501854649" y="11184.0989643" y_displacement_sum="-17.1710357097" />
    <node avg_slowdown_ratio="0.992664655235" fixed="True" id="261765374" junction="True" old_x="7164.11" old_y="6963.17" type="priority" weight_num="2.0" weight_sum="1.98532931047" x="7360.06854461" x_displacement_sum="195.958544612" y="6888.53173433" y_displacement_sum="-74.6382656663" />
    <node avg_slowdown_ratio="0.9925014997" fixed="True" id="288734552" junction="True" old_x="9218.91" old_y="11073.68" type="priority" weight_num="2.0" weight_sum="1.9850029994" x="9250.33290634" x_displacement_sum="31.4229063394" y="11122.0622984" y_displacement_sum="48.382298395" />
    <node avg_slowdown_ratio="0.99221461023" fixed="True" id="263017588" junction="True" old_x="10452.08" old_y="5579.61" type="priority" weight_num="2.0" weight_sum="1.98442922046" x="10610.5688264" x_displacement_sum="158.48882638" y="5597.39149532" y_displacement_sum="17.7814953231" />
    <node avg_slowdown_ratio="0.992201559688" id="1813317637" old_x="15594.2" old_y="5701.07" type="priority" weight_num="1.0" weight_sum="0.992201559688" x="15861.6778147" x_displacement_sum="267.477814741" y="5892.58132015" y_displacement_sum="191.511320155" />
    <node avg_slowdown_ratio="0.992201559688" id="262109435" old_x="10890.99" old_y="6781.7" type="priority" weight_num="1.0" weight_sum="0.992201559688" x="10733.0706689" x_displacement_sum="-157.9193311" y="6866.04184228" y_displacement_sum="84.3418422761" />
    <node avg_slowdown_ratio="0.992201559688" id="4173759212" old_x="8844.02" old_y="11548.63" type="priority" weight_num="1.0" weight_sum="0.992201559688" x="8739.17737365" x_displacement_sum="-104.842626346" y="11495.2660896" y_displacement_sum="-53.3639103561" />
    <node avg_slowdown_ratio="0.992201559688" id="889970677" old_x="8709.93" old_y="7426.13" type="priority" weight_num="1.0" weight_sum="0.992201559688" x="8536.27199352" x_displacement_sum="-173.658006478" y="7561.47470292" y_displacement_sum="135.344702924" />
    <node avg_slowdown_ratio="0.99208063355" fixed="True" id="2510805188" junction="True" old_x="8620.03" old_y="8811.27" type="priority" weight_num="2.0" weight_sum="1.9841612671" x="8737.15605531" x_displacement_sum="117.126055312" y="8945.88349809" y_displacement_sum="134.613498095" />
    <node avg_slowdown_ratio="0.992080633549" id="1268402934" old_x="5985.49" old_y="7605.37" type="priority" weight_num="1.0" weight_sum="0.992080633549" x="6101.33272341" x_displacement_sum="115.842723409" y="7721.39155143" y_displacement_sum="116.021551429" />
    <node avg_slowdown_ratio="0.992080633549" id="2137504139" old_x="6378.61" old_y="9937.33" type="priority" weight_num="1.0" weight_sum="0.992080633549" x="5617.56879219" x_displacement_sum="-761.04120781" y="9930.89584605" y_displacement_sum="-6.43415395191" />
    <node avg_slowdown_ratio="0.992080633549" id="318346884#9-AddedOffRampNode" old_x="11833.96" old_y="4726.28" type="priority" weight_num="1.0" weight_sum="0.992080633549" x="11628.4759608" x_displacement_sum="-205.484039197" y="4195.48194824" y_displacement_sum="-530.798051758" />
    <node avg_slowdown_ratio="0.99198958773" fixed="True" id="261765317" junction="True" old_x="7397.94" old_y="6686.41" type="priority" weight_num="2.0" weight_sum="1.98397917546" x="7576.98861766" x_displacement_sum="179.048617661" y="6883.57372988" y_displacement_sum="197.163729877" />
    <node avg_slowdown_ratio="0.991900539785" fixed="True" id="2927613060" junction="True" old_x="8820.88" old_y="11579.91" type="priority" weight_num="2.0" weight_sum="1.98380107957" x="8701.74961335" x_displacement_sum="-119.130386654" y="11462.3825447" y_displacement_sum="-117.527455277" />
    <node avg_slowdown_ratio="0.991899189919" id="2861666266" old_x="7007.02" old_y="7144.9" type="priority" weight_num="1.0" weight_sum="0.991899189919" x="7106.40922944" x_displacement_sum="99.3892294385" y="7083.61297947" y_displacement_sum="-61.2870205322" />
    <node avg_slowdown_ratio="0.991720662347" id="261702955" old_x="5954.75" old_y="7560.03" type="priority" weight_num="1.0" weight_sum="0.991720662347" x="6071.12855518" x_displacement_sum="116.378555185" y="7521.02400773" y_displacement_sum="-39.0059922702" />
    <node avg_slowdown_ratio="0.991601679664" id="1067889655" old_x="9525.12" old_y="11304.68" type="priority" weight_num="1.0" weight_sum="0.991601679664" x="9486.52628922" x_displacement_sum="-38.5937107761" y="11126.9313547" y_displacement_sum="-177.748645284" />
    <node avg_slowdown_ratio="0.991601679664" id="232754823#13-AddedOffRampNode" old_x="9322.85" old_y="11152.16" type="priority" weight_num="1.0" weight_sum="0.991601679664" x="9176.83636791" x_displacement_sum="-146.013632086" y="11440.566561" y_displacement_sum="288.406561048" />
    <node avg_slowdown_ratio="0.991601679664" id="65596625#3-AddedOnRampNode" old_x="9149.54" old_y="13265.71" type="priority" weight_num="1.0" weight_sum="0.991601679664" x="9123.79963643" x_displacement_sum="-25.7403635703" y="13240.7028521" y_displacement_sum="-25.0071478767" />
    <node avg_slowdown_ratio="0.991600671947" fixed="True" id="261763342" junction="True" old_x="7368.47" old_y="6656.43" type="priority" weight_num="3.0" weight_sum="2.97480201584" x="7517.2191841" x_displacement_sum="148.7491841" y="6837.95585416" y_displacement_sum="181.525854157" />
    <node avg_slowdown_ratio="0.991600671947" fixed="True" id="3162585239" junction="True" old_x="9059.86" old_y="11190.87" type="priority" weight_num="3.0" weight_sum="2.97480201584" x="9300.2706519" x_displacement_sum="240.410651903" y="11210.8693991" y_displacement_sum="19.9993991069" />
    <node avg_slowdown_ratio="0.991600671947" fixed="True" id="3791348654" junction="True" old_x="9176.34" old_y="11941.17" type="priority" weight_num="3.0" weight_sum="2.97480201584" x="9118.53833101" x_displacement_sum="-57.8016689936" y="12034.8611296" y_displacement_sum="93.6911296122" />
    <node avg_slowdown_ratio="0.991540676745" fixed="True" id="1845027350" junction="True" old_x="10026.1" old_y="9959.74" type="priority" weight_num="2.0" weight_sum="1.98308135349" x="9775.96488311" x_displacement_sum="-250.135116886" y="10179.8988725" y_displacement_sum="220.15887254" />
    <node avg_slowdown_ratio="0.991360691147" fixed="True" id="1882098843" junction="True" old_x="8822.35" old_y="11454.27" type="priority" weight_num="3.0" weight_sum="2.97408207344" x="8649.06847245" x_displacement_sum="-173.281527552" y="11686.1428564" y_displacement_sum="231.872856401" />
    <node avg_slowdown_ratio="0.991360691147" fixed="True" id="4041698466" junction="True" old_x="14683.91" old_y="5642.66" type="priority" weight_num="3.0" weight_sum="2.97408207344" x="14724.7597587" x_displacement_sum="40.8497587262" y="5731.51208431" y_displacement_sum="88.8520843093" />
    <node avg_slowdown_ratio="0.991241276585" fixed="True" id="3962000364" junction="True" old_x="9871.77" old_y="7477.12" type="priority" weight_num="2.0" weight_sum="1.98248255317" x="9891.42825248" x_displacement_sum="19.6582524836" y="7418.0820523" y_displacement_sum="-59.0379476986" />
    <node avg_slowdown_ratio="0.991089821725" fixed="True" id="261765334" junction="True" old_x="7181.93" old_y="6942.21" type="priority" weight_num="2.0" weight_sum="1.98217964345" x="7334.76086661" x_displacement_sum="152.830866608" y="6913.01700982" y_displacement_sum="-29.1929901824" />
    <node avg_slowdown_ratio="0.99100179964" id="1166168524" old_x="9725.21" old_y="7265.52" type="priority" weight_num="1.0" weight_sum="0.99100179964" x="10171.2051039" x_displacement_sum="445.995103883" y="6701.94686358" y_displacement_sum="-563.573136424" />
    <node avg_slowdown_ratio="0.99100179964" id="24206855#4-AddedOffRampNode" old_x="9109.59" old_y="8969.27" type="priority" weight_num="1.0" weight_sum="0.99100179964" x="8779.65811309" x_displacement_sum="-329.931886907" y="8615.07969948" y_displacement_sum="-354.190300519" />
    <node avg_slowdown_ratio="0.99100179964" id="3791348659" old_x="9229.96" old_y="11995.14" type="priority" weight_num="1.0" weight_sum="0.99100179964" x="9328.38413914" x_displacement_sum="98.424139136" y="12195.2137776" y_displacement_sum="200.073777564" />
    <node avg_slowdown_ratio="0.99100179964" id="811037786" old_x="9135.97" old_y="8929.8" type="priority" weight_num="1.0" weight_sum="0.99100179964" x="8647.19168644" x_displacement_sum="-488.778313563" y="8557.28933292" y_displacement_sum="-372.510667082" />
    <node avg_slowdown_ratio="0.99088072954" fixed="True" id="262111094" junction="True" old_x="9202.82" old_y="7992.91" type="priority" weight_num="3.0" weight_sum="2.97264218862" x="9110.51004785" x_displacement_sum="-92.3099521483" y="8220.5464605" y_displacement_sum="227.636460497" />
    <node avg_slowdown_ratio="0.99082127419" fixed="True" id="cluster_2522487374_262111054" junction="True" old_x="8754.05" old_y="8433.53" type="priority" weight_num="2.0" weight_sum="1.98164254838" x="8684.64872816" x_displacement_sum="-69.4012718436" y="8513.41831623" y_displacement_sum="79.8883162277" />
    <node avg_slowdown_ratio="0.990801047853" fixed="True" id="cluster_263022645_2864414238" junction="True" old_x="11646.81" old_y="5926.73" type="priority" weight_num="3.0" weight_sum="2.97240314356" x="11700.9867655" x_displacement_sum="54.176765532" y="5844.30772724" y_displacement_sum="-82.4222727588" />
    <node avg_slowdown_ratio="0.99076113503" fixed="True" id="2547597103" junction="True" old_x="4469.86" old_y="7501.68" type="priority" weight_num="2.0" weight_sum="1.98152227006" x="4474.52827057" x_displacement_sum="4.66827056965" y="7737.88741927" y_displacement_sum="236.207419266" />
    <node avg_slowdown_ratio="0.99064074874" id="1788613985" old_x="8083.69" old_y="9423.96" type="priority" weight_num="1.0" weight_sum="0.99064074874" x="8295.27431904" x_displacement_sum="211.584319037" y="9536.5726629" y_displacement_sum="112.612662902" />
    <node avg_slowdown_ratio="0.99064074874" id="1845019566" old_x="9194.26" old_y="9178.15" type="priority" weight_num="1.0" weight_sum="0.99064074874" x="9138.44482741" x_displacement_sum="-55.8151725929" y="9715.99637996" y_displacement_sum="537.846379961" />
    <node avg_slowdown_ratio="0.99064074874" fixed="True" id="261836349" junction="True" old_x="9892.63" old_y="6949.98" type="priority" weight_num="2.0" weight_sum="1.98128149748" x="9803.06671606" x_displacement_sum="-89.5632839396" y="6880.49704556" y_displacement_sum="-69.4829544352" />
    <node avg_slowdown_ratio="0.99064074874" fixed="True" id="262024200" junction="True" old_x="7300.61" old_y="9612.86" type="priority" weight_num="3.0" weight_sum="2.97192224622" x="8074.03596178" x_displacement_sum="773.425961777" y="8837.01616557" y_displacement_sum="-775.843834426" />
    <node avg_slowdown_ratio="0.99058158131" fixed="True" id="cluster_2928746235_2928747257_2928747258" junction="True" old_x="8952.34" old_y="11750.43" type="priority" weight_num="2.0" weight_sum="1.98116316262" x="9152.77307897" x_displacement_sum="200.433078967" y="11904.1146828" y_displacement_sum="153.684682798" />
    <node avg_slowdown_ratio="0.99054937891" fixed="True" id="261703033" junction="True" old_x="5873.46" old_y="7583.17" type="priority" weight_num="2.0" weight_sum="1.98109875782" x="5560.36063818" x_displacement_sum="-313.099361819" y="7800.99612048" y_displacement_sum="217.826120479" />
    <node avg_slowdown_ratio="0.990401919616" id="1807172811" old_x="8613.75" old_y="8784.65" type="priority" weight_num="1.0" weight_sum="0.990401919616" x="8793.10431619" x_displacement_sum="179.354316194" y="8985.63916987" y_displacement_sum="200.989169873" />
    <node avg_slowdown_ratio="0.990401919616" id="289212922#3-AddedOffRampNode" old_x="8905.97" old_y="11464.35" type="priority" weight_num="1.0" weight_sum="0.990401919616" x="8796.92875852" x_displacement_sum="-109.041241477" y="11651.4670038" y_displacement_sum="187.117003824" />
    <node avg_slowdown_ratio="0.99040076794" fixed="True" id="2928747055" junction="True" old_x="8985.09" old_y="11889.17" type="priority" weight_num="3.0" weight_sum="2.97120230382" x="8834.17601494" x_displacement_sum="-150.913985058" y="11668.6183073" y_displacement_sum="-220.551692728" />
    <node avg_slowdown_ratio="0.990281641295" fixed="True" id="1061695098" junction="True" old_x="7351.83" old_y="10550.75" type="priority" weight_num="2.0" weight_sum="1.98056328259" x="7218.67989707" x_displacement_sum="-133.150102927" y="10516.2683312" y_displacement_sum="-34.4816687996" />
    <node avg_slowdown_ratio="0.990280777538" id="1837892294" old_x="7322.87" old_y="10796.14" type="priority" weight_num="1.0" weight_sum="0.990280777538" x="7135.89573601" x_displacement_sum="-186.974263993" y="10840.9086809" y_displacement_sum="44.7686809044" />
    <node avg_slowdown_ratio="0.990280777538" id="4026572320" old_x="5247.66" old_y="7369.46" type="priority" weight_num="1.0" weight_sum="0.990280777538" x="5328.83519025" x_displacement_sum="81.1751902533" y="7440.22605346" y_displacement_sum="70.7660534564" />
    <node avg_slowdown_ratio="0.990101979605" fixed="True" id="2361777076" junction="True" old_x="9230.65" old_y="11057.28" type="priority" weight_num="2.0" weight_sum="1.98020395921" x="9193.29985705" x_displacement_sum="-37.3501429472" y="11079.4139925" y_displacement_sum="22.1339924863" />
    <node avg_slowdown_ratio="0.990100791938" fixed="True" id="262110406" junction="True" old_x="9866.26" old_y="7498.05" type="priority" weight_num="4.0" weight_sum="3.96040316775" x="9828.89529223" x_displacement_sum="-37.3647077728" y="7475.24454479" y_displacement_sum="-22.8054552109" />
    <node avg_slowdown_ratio="0.990100791935" fixed="True" id="261702975" junction="True" old_x="5927.92" old_y="7497.36" type="priority" weight_num="2.0" weight_sum="1.98020158387" x="6047.10877475" x_displacement_sum="119.188774752" y="7189.23383417" y_displacement_sum="-308.126165833" />
    <node avg_slowdown_ratio="0.989920806337" fixed="True" id="4173759209" junction="True" old_x="8796.32" old_y="11489.82" type="priority" weight_num="3.0" weight_sum="2.96976241901" x="8571.64206544" x_displacement_sum="-224.677934564" y="11615.3287566" y_displacement_sum="125.508756582" />
    <node avg_slowdown_ratio="0.989680825533" fixed="True" id="2928747036" junction="True" old_x="8803.14" old_y="11750.65" type="priority" weight_num="3.0" weight_sum="2.9690424766" x="8660.39137637" x_displacement_sum="-142.748623631" y="11940.2373604" y_displacement_sum="189.587360364" />
    <node avg_slowdown_ratio="0.989648964896" id="263020579" old_x="11392.29" old_y="5258.74" type="priority" weight_num="1.0" weight_sum="0.989648964896" x="11663.4035208" x_displacement_sum="271.113520773" y="5152.14348105" y_displacement_sum="-106.596518945" />
    <node avg_slowdown_ratio="0.989646803815" fixed="True" id="2268583788" junction="True" old_x="9831.37" old_y="5308.56" type="priority" weight_num="2.0" weight_sum="1.97929360763" x="9819.24464387" x_displacement_sum="-12.1253561254" y="5325.11270655" y_displacement_sum="16.5527065527" />
    <node avg_slowdown_ratio="0.989560835135" fixed="True" id="262191271" junction="True" old_x="10007.82" old_y="9961.02" type="priority" weight_num="2.0" weight_sum="1.97912167027" x="9773.218422" x_displacement_sum="-234.601578001" y="10119.5411371" y_displacement_sum="158.521137071" />
    <node avg_slowdown_ratio="0.989560835133" id="4059785095" old_x="13187.6" old_y="3580.52" type="priority" weight_num="1.0" weight_sum="0.989560835133" x="13007.3327763" x_displacement_sum="-180.267223705" y="3265.03331317" y_displacement_sum="-315.486686825" />
    <node avg_slowdown_ratio="0.98944084473" fixed="True" id="261765415" junction="True" old_x="7324.22" old_y="6791.52" type="priority" weight_num="3.0" weight_sum="2.96832253419" x="7248.09707723" x_displacement_sum="-76.122922775" y="7119.6817098" y_displacement_sum="328.161709802" />
    <node avg_slowdown_ratio="0.989423942395" fixed="True" id="cluster_1803576953_1803576954" junction="True" old_x="16109.49" old_y="3863.9" type="priority" weight_num="2.0" weight_sum="1.97884788479" x="15388.6629264" x_displacement_sum="-720.827073598" y="3665.49325452" y_displacement_sum="-198.406745484" />
    <node avg_slowdown_ratio="0.98932179007" fixed="True" id="261819189" junction="True" old_x="7596.74" old_y="7708.54" type="priority" weight_num="2.0" weight_sum="1.97864358014" x="7736.24314017" x_displacement_sum="139.503140171" y="7940.86098646" y_displacement_sum="232.320986457" />
    <node avg_slowdown_ratio="0.989288993695" fixed="True" id="2751313824" junction="True" old_x="8147.49" old_y="5799.75" type="priority" weight_num="2.0" weight_sum="1.97857798739" x="8308.68334217" x_displacement_sum="161.193342173" y="5754.64643587" y_displacement_sum="-45.1035641346" />