<?xml version='1.0' encoding='UTF-8'?>
<nodes xmlns:xsi="http://www.w3.org/2001/XMLSchema-instance" version="0.27" xsi:noNamespaceSchemaLocation="http://sumo.dlr.de/xsd/edges_file.xsd"><node avg_slowdown_ratio="0.997960187183" id="2751313823" type="priority" weight_num="3.0" weight_sum="2.99388056155" x="8150.99" y="5819.53" />
    <node avg_slowdown_ratio="0.997120230382" id="1067889590" type="priority" weight_num="1.0" weight_sum="0.997120230382" x="9594.61" y="11687.22" />
    <node avg_slowdown_ratio="0.997120230382" id="263017729" type="priority" weight_num="1.0" weight_sum="0.997120230382" x="11900.89" y="4926.41" />
    <node avg_slowdown_ratio="0.99664026878" id="261763340" type="priority" weight_num="3.0" weight_sum="2.98992080634" x="7441.37" y="6569.24" />
    <node avg_slowdown_ratio="0.996400719856" id="434371438#6-AddedOffRampNode" type="priority" weight_num="1.0" weight_sum="0.996400719856" x="8127.14" y="9193.01" />
    <node avg_slowdown_ratio="0.995680345572" id="263016110" type="priority" weight_num="1.0" weight_sum="0.995680345572" x="11872.30" y="4818.64" />
    <node avg_slowdown_ratio="0.99550035997" id="263016163" type="priority" weight_num="2.0" weight_sum="1.99100071994" x="11827.89" y="4711.66" />
    <node avg_slowdown_ratio="0.995499549955" id="434375951#4-AddedOffRampNode" type="priority" weight_num="1.0" weight_sum="0.995499549955" x="11254.40" y="5421.87" />
    <node avg_slowdown_ratio="0.995320050365" id="2861666265" type="priority" weight_num="2.0" weight_sum="1.99064010073" x="7009.66" y="7171.52" />
    <node avg_slowdown_ratio="0.995200959808" id="1067889521" type="priority" weight_num="1.0" weight_sum="0.995200959808" x="9426.93" y="11659.46" />
    <node avg_slowdown_ratio="0.995200959808" id="434371438#1-AddedOnRampNode" type="priority" weight_num="1.0" weight_sum="0.995200959808" x="8424.27" y="8828.46" />
    <node avg_slowdown_ratio="0.995185101665" id="263022594" type="priority" weight_num="2.0" weight_sum="1.99037020333" x="11363.57" y="5291.06" />
    <node avg_slowdown_ratio="0.995094703855" id="261765377" type="priority" weight_num="2.0" weight_sum="1.99018940771" x="7012.60" y="7138.30" />
    <node avg_slowdown_ratio="0.99508068149" id="1875931808" type="priority" weight_num="2.0" weight_sum="1.99016136298" x="8246.15" y="9531.41" />
    <node avg_slowdown_ratio="0.99504950495" id="1038949808" type="priority" weight_num="1.0" weight_sum="0.99504950495" x="6976.99" y="7183.10" />
    <node avg_slowdown_ratio="0.995040588717" id="cluster_1636594565_3926859714" type="priority" weight_num="3.0" weight_sum="2.98512176615" x="9334.72" y="11173.81" />
    <node avg_slowdown_ratio="0.99482464445" id="1657196938" type="priority" weight_num="2.0" weight_sum="1.9896492889" x="11884.98" y="4887.42" />
    <node avg_slowdown_ratio="0.99482448245" id="2861666272" type="priority" weight_num="2.0" weight_sum="1.9896489649" x="6984.30" y="7174.02" />
    <node avg_slowdown_ratio="0.994780417565" id="263022603" type="priority" weight_num="2.0" weight_sum="1.98956083513" x="11912.38" y="4947.37" />
    <node avg_slowdown_ratio="0.994601079784" id="1807172822" type="priority" weight_num="1.0" weight_sum="0.994601079784" x="8638.69" y="8804.01" />
    <node avg_slowdown_ratio="0.994601079784" id="3162585229" type="priority" weight_num="1.0" weight_sum="0.994601079784" x="9244.23" y="11090.36" />
    <node avg_slowdown_ratio="0.994600431965" id="26411228#12-AddedOnRampNode" type="priority" weight_num="1.0" weight_sum="0.994600431965" x="6228.54" y="10019.36" />
    <node avg_slowdown_ratio="0.994240460765" id="261702938" type="priority" weight_num="2.0" weight_sum="1.98848092153" x="5933.69" y="7522.52" />
    <node avg_slowdown_ratio="0.994240460765" id="263022604" type="priority" weight_num="2.0" weight_sum="1.98848092153" x="12001.84" y="5151.14" />
    <node avg_slowdown_ratio="0.994240460765" id="3791348650" type="priority" weight_num="2.0" weight_sum="1.98848092153" x="9184.70" y="11929.56" />
    <node avg_slowdown_ratio="0.99400119976" id="262111806" type="priority" weight_num="1.0" weight_sum="0.99400119976" x="9071.45" y="9012.23" />
    <node avg_slowdown_ratio="0.99400119976" id="80576087#6-AddedOffRampNode" type="priority" weight_num="1.0" weight_sum="0.99400119976" x="14312.73" y="3821.31" />
    <node avg_slowdown_ratio="0.993880489561" id="1540504597" type="priority" weight_num="1.0" weight_sum="0.993880489561" x="7103.50" y="10409.87" />
    <node avg_slowdown_ratio="0.99388048956" id="263016162" type="priority" weight_num="2.0" weight_sum="1.98776097912" x="11744.26" y="4540.26" />
    <node avg_slowdown_ratio="0.99382089025" id="2410794971" type="priority" weight_num="2.0" weight_sum="1.9876417805" x="9506.20" y="11291.12" />
    <node avg_slowdown_ratio="0.993520518359" id="1320235607" type="priority" weight_num="1.0" weight_sum="0.993520518359" x="12167.49" y="5498.38" />
    <node avg_slowdown_ratio="0.993401319736" id="1065139769" type="priority" weight_num="1.0" weight_sum="0.993401319736" x="6305.31" y="9172.54" />
    <node avg_slowdown_ratio="0.993401319736" id="2927613057" type="priority" weight_num="1.0" weight_sum="0.993401319736" x="8774.36" y="11645.26" />
    <node avg_slowdown_ratio="0.993401319736" id="3926859711" type="priority" weight_num="1.0" weight_sum="0.993401319736" x="9353.63" y="11175.86" />
    <node avg_slowdown_ratio="0.993401319736" id="cluster_3926882183_4325306022" type="priority" weight_num="1.0" weight_sum="0.993401319736" x="9835.52" y="7445.31" />
    <node avg_slowdown_ratio="0.993280537557" id="261763464" type="priority" weight_num="3.0" weight_sum="2.97984161267" x="7141.81" y="6931.71" />
    <node avg_slowdown_ratio="0.993204612035" id="1320235955" tl="GS_1320235955" type="traffic_light" weight_num="2.0" weight_sum="1.98640922407" x="12111.89" y="5385.79" />
    <node avg_slowdown_ratio="0.992801439712" id="1052166021" type="priority" weight_num="1.0" weight_sum="0.992801439712" x="9231.81" y="7851.40" />
    <node avg_slowdown_ratio="0.992801439712" id="1063911843" type="priority" weight_num="1.0" weight_sum="0.992801439712" x="9645.48" y="7265.50" />
    <node avg_slowdown_ratio="0.992801439712" id="3510035110" type="priority" weight_num="1.0" weight_sum="0.992801439712" x="8964.93" y="11383.58" />
    <node avg_slowdown_ratio="0.992801439712" id="4280981646" type="priority" weight_num="1.0" weight_sum="0.992801439712" x="8922.33" y="11441.94" />
    <node avg_slowdown_ratio="0.992800575955" id="263016247" type="priority" weight_num="2.0" weight_sum="1.98560115191" x="11641.91" y="4324.79" />
    <node avg_slowdown_ratio="0.992800575954" id="1061694972" type="priority" weight_num="1.0" weight_sum="0.992800575954" x="7295.13" y="10840.05" />
    <node avg_slowdown_ratio="0.992800575953" id="4041698469" type="priority" weight_num="3.0" weight_sum="2.97840172786" x="14679.59" y="5619.21" />
    <node avg_slowdown_ratio="0.99270953013" id="261765414" type="priority" weight_num="2.0" weight_sum="1.98541906026" x="7348.15" y="6744.83" />
    <node avg_slowdown_ratio="0.992680945455" id="cluster_1636588566_3926859712_3926859713" type="priority" weight_num="2.0" weight_sum="1.98536189091" x="9377.61" y="11201.27" />
    <node avg_slowdown_ratio="0.992664655235" id="261765374" type="priority" weight_num="2.0" weight_sum="1.98532931047" x="7164.11" y="6963.17" />
    <node avg_slowdown_ratio="0.9925014997" id="288734552" type="priority" weight_num="2.0" weight_sum="1.9850029994" x="9218.91" y="11073.68" />
    <node avg_slowdown_ratio="0.99221461023" id="263017588" type="priority" weight_num="2.0" weight_sum="1.98442922046" x="10452.08" y="5579.61" />
    <node avg_slowdown_ratio="0.992201559688" id="1813317637" type="priority" weight_num="1.0" weight_sum="0.992201559688" x="15594.20" y="5701.07" />
    <node avg_slowdown_ratio="0.992201559688" id="262109435" type="priority" weight_num="1.0" weight_sum="0.992201559688" x="10890.99" y="6781.70" />
    <node avg_slowdown_ratio="0.992201559688" id="4173759212" type="priority" weight_num="1.0" weight_sum="0.992201559688" x="8844.02" y="11548.63" />
    <node avg_slowdown_ratio="0.992201559688" id="889970677" type="priority" weight_num="1.0" weight_sum="0.992201559688" x="8709.93" y="7426.13" />
    <node avg_slowdown_ratio="0.99208063355" id="2510805188" type="priority" weight_num="2.0" weight_sum="1.9841612671" x="8620.03" y="8811.27" />
    <node avg_slowdown_ratio="0.992080633549" id="1268402934" type="priority" weight_num="1.0" weight_sum="0.992080633549" x="5985.49" y="7605.37" />
    <node avg_slowdown_ratio="0.992080633549" id="2137504139" type="priority" weight_num="1.0" weight_sum="0.992080633549" x="6378.61" y="9937.33" />
    <node avg_slowdown_ratio="0.992080633549" id="318346884#9-AddedOffRampNode" type="priority" weight_num="1.0" weight_sum="0.992080633549" x="11833.96" y="4726.28" />
    <node avg_slowdown_ratio="0.99198958773" id="261765317" type="priority" weight_num="2.0" weight_sum="1.98397917546" x="7397.94" y="6686.41" />
    <node avg_slowdown_ratio="0.991900539785" id="2927613060" type="priority" weight_num="2.0" weight_sum="1.98380107957" x="8820.88" y="11579.91" />
    <node avg_slowdown_ratio="0.991899189919" id="2861666266" type="priority" weight_num="1.0" weight_sum="0.991899189919" x="7007.02" y="7144.90" />
    <node avg_slowdown_ratio="0.991720662347" id="261702955" type="priority" weight_num="1.0" weight_sum="0.991720662347" x="5954.75" y="7560.03" />
    <node avg_slowdown_ratio="0.991601679664" id="1067889655" type="priority" weight_num="1.0" weight_sum="0.991601679664" x="9525.12" y="11304.68" />
    <node avg_slowdown_ratio="0.991601679664" id="232754823#13-AddedOffRampNode" type="priority" weight_num="1.0" weight_sum="0.991601679664" x="9322.85" y="11152.16" />
    <node avg_slowdown_ratio="0.991601679664" id="65596625#3-AddedOnRampNode" type="priority" weight_num="1.0" weight_sum="0.991601679664" x="9149.54" y="13265.71" />
    <node avg_slowdown_ratio="0.991600671947" id="261763342" type="priority" weight_num="3.0" weight_sum="2.97480201584" x="7368.47" y="6656.43" />
    <node avg_slowdown_ratio="0.991600671947" id="3162585239" type="priority" weight_num="3.0" weight_sum="2.97480201584" x="9059.86" y="11190.87" />
    <node avg_slowdown_ratio="0.991600671947" id="3791348654" type="priority" weight_num="3.0" weight_sum="2.97480201584" x="9176.34" y="11941.17" />
    <node avg_slowdown_ratio="0.991540676745" id="1845027350" type="priority" weight_num="2.0" weight_sum="1.98308135349" x="10026.10" y="9959.74" />
    <node avg_slowdown_ratio="0.991360691147" id="1882098843" type="priority" weight_num="3.0" weight_sum="2.97408207344" x="8822.35" y="11454.27" />
    <node avg_slowdown_ratio="0.991360691147" id="4041698466" type="priority" weight_num="3.0" weight_sum="2.97408207344" x="14683.91" y="5642.66" />
    <node avg_slowdown_ratio="0.991241276585" id="3962000364" type="priority" weight_num="2.0" weight_sum="1.98248255317" x="9871.77" y="7477.12" />
    <node avg_slowdown_ratio="0.991089821725" id="261765334" type="priority" weight_num="2.0" weight_sum="1.98217964345" x="7181.93" y="6942.21" />
    <node avg_slowdown_ratio="0.99100179964" id="1166168524" type="priority" weight_num="1.0" weight_sum="0.99100179964" x="9725.21" y="7265.52" />
    <node avg_slowdown_ratio="0.99100179964" id="24206855#4-AddedOffRampNode" type="priority" weight_num="1.0" weight_sum="0.99100179964" x="9109.59" y="8969.27" />
    <node avg_slowdown_ratio="0.99100179964" id="3791348659" type="priority" weight_num="1.0" weight_sum="0.99100179964" x="9229.96" y="11995.14" />
    <node avg_slowdown_ratio="0.99100179964" id="811037786" type="priority" weight_num="1.0" weight_sum="0.99100179964" x="9135.97" y="8929.80" />
    <node avg_slowdown_ratio="0.99088072954" id="262111094" type="priority" weight_num="3.0" weight_sum="2.97264218862" x="9202.82" y="7992.91" />
    <node avg_slowdown_ratio="0.99082127419" id="cluster_2522487374_262111054" type="priority" weight_num="2.0" weight_sum="1.98164254838" x="8754.05" y="8433.53" />
    <node avg_slowdown_ratio="0.990801047853" id="cluster_263022645_2864414238" type="priority" weight_num="3.0" weight_sum="2.97240314356" x="11646.81" y="5926.73" />
    <node avg_slowdown_ratio="0.99076113503" id="2547597103" type="priority" weight_num="2.0" weight_sum="1.98152227006" x="4469.86" y="7501.68" />
    <node avg_slowdown_ratio="0.99064074874" id="1788613985" type="priority" weight_num="1.0" weight_sum="0.99064074874" x="8083.69" y="9423.96" />
    <node avg_slowdown_ratio="0.99064074874" id="1845019566" type="priority" weight_num="1.0" weight_sum="0.99064074874" x="9194.26" y="9178.15" />
    <node avg_slowdown_ratio="0.99064074874" id="261836349" type="priority" weight_num="2.0" weight_sum="1.98128149748" x="9892.63" y="6949.98" />
    <node avg_slowdown_ratio="0.99064074874" id="262024200" type="priority" weight_num="3.0" weight_sum="2.97192224622" x="7300.61" y="9612.86" />
    <node avg_slowdown_ratio="0.99058158131" id="cluster_2928746235_2928747257_2928747258" type="priority" weight_num="2.0" weight_sum="1.98116316262" x="8952.34" y="11750.43" />
    <node avg_slowdown_ratio="0.99054937891" id="261703033" type="priority" weight_num="2.0" weight_sum="1.98109875782" x="5873.46" y="7583.17" />
    <node avg_slowdown_ratio="0.990401919616" id="1807172811" type="priority" weight_num="1.0" weight_sum="0.990401919616" x="8613.75" y="8784.65" />
    <node avg_slowdown_ratio="0.990401919616" id="289212922#3-AddedOffRampNode" type="priority" weight_num="1.0" weight_sum="0.990401919616" x="8905.97" y="11464.35" />
    <node avg_slowdown_ratio="0.99040076794" id="2928747055" type="priority" weight_num="3.0" weight_sum="2.97120230382" x="8985.09" y="11889.17" />
    <node avg_slowdown_ratio="0.990281641295" id="1061695098" type="priority" weight_num="2.0" weight_sum="1.98056328259" x="7351.83" y="10550.75" />
    <node avg_slowdown_ratio="0.990280777538" id="1837892294" type="priority" weight_num="1.0" weight_sum="0.990280777538" x="7322.87" y="10796.14" />
    <node avg_slowdown_ratio="0.990280777538" id="4026572320" type="priority" weight_num="1.0" weight_sum="0.990280777538" x="5247.66" y="7369.46" />
    <node avg_slowdown_ratio="0.990101979605" id="2361777076" type="priority" weight_num="2.0" weight_sum="1.98020395921" x="9230.65" y="11057.28" />
    <node avg_slowdown_ratio="0.990100791938" id="262110406" type="priority" weight_num="4.0" weight_sum="3.96040316775" x="9866.26" y="7498.05" />
    <node avg_slowdown_ratio="0.990100791935" id="261702975" type="priority" weight_num="2.0" weight_sum="1.98020158387" x="5927.92" y="7497.36" />
    <node avg_slowdown_ratio="0.989920806337" id="4173759209" type="priority" weight_num="3.0" weight_sum="2.96976241901" x="8796.32" y="11489.82" />
    <node avg_slowdown_ratio="0.989680825533" id="2928747036" type="priority" weight_num="3.0" weight_sum="2.9690424766" x="8803.14" y="11750.65" />
    <node avg_slowdown_ratio="0.989648964896" id="263020579" type="priority" weight_num="1.0" weight_sum="0.989648964896" x="11392.29" y="5258.74" />
    <node avg_slowdown_ratio="0.989646803815" id="2268583788" type="priority" weight_num="2.0" weight_sum="1.97929360763" x="9831.37" y="5308.56" />
    <node avg_slowdown_ratio="0.989560835135" id="262191271" type="priority" weight_num="2.0" weight_sum="1.97912167027" x="10007.82" y="9961.02" />
    <node avg_slowdown_ratio="0.989560835133" id="4059785095" type="priority" weight_num="1.0" weight_sum="0.989560835133" x="13187.60" y="3580.52" />
    <node avg_slowdown_ratio="0.98944084473" id="261765415" type="priority" weight_num="3.0" weight_sum="2.96832253419" x="7324.22" y="6791.52" />
    <node avg_slowdown_ratio="0.989423942395" id="cluster_1803576953_1803576954" type="priority" weight_num="2.0" weight_sum="1.97884788479" x="16109.49" y="3863.90" />
    <node avg_slowdown_ratio="0.98932179007" id="261819189" type="priority" weight_num="2.0" weight_sum="1.97864358014" x="7596.74" y="7708.54" />
    <node avg_slowdown_ratio="0.989288993695" id="2751313824" type="priority" weight_num="2.0" weight_sum="1.97857798739" x="8147.49" y="5799.75" />
    <node avg_slowdown_ratio="0.989202159568" id="2547597094" type="priority" weight_num="1.0" weight_sum="0.989202159568" x="4636.51" y="7468.98" />
    <node avg_slowdown_ratio="0.989202159568" id="2928746242" type="priority" weight_num="1.0" weight_sum="0.989202159568" x="8730.84" y="12011.52" />
    <node avg_slowdown_ratio="0.98920140378" id="3644721335" type="priority" weight_num="2.0" weight_sum="1.97840280756" x="4487.72" y="7495.42" />
    <node avg_slowdown_ratio="0.989200863931" id="289362410" type="priority" weight_num="1.0" weight_sum="0.989200863931" x="6457.61" y="9873.43" />
    <node avg_slowdown_ratio="0.98920086393" id="4027231149" type="priority" weight_num="2.0" weight_sum="1.97840172786" x="5906.69" y="7524.96" />
    <node avg_slowdown_ratio="0.989198919892" id="434395751#4-AddedOnRampNode" type="priority" weight_num="1.0" weight_sum="0.989198919892" x="14628.76" y="3906.48" />
    <node avg_slowdown_ratio="0.98902163412" id="262109411" type="priority" weight_num="2.0" weight_sum="1.97804326824" x="9946.38" y="6996.12" />
    <node avg_slowdown_ratio="0.98896088313" id="3974237066" type="priority" weight_num="3.0" weight_sum="2.96688264939" x="15715.00" y="4321.96" />
    <node avg_slowdown_ratio="0.98884089273" id="1837882540" type="priority" weight_num="2.0" weight_sum="1.97768178546" x="7175.92" y="10972.94" />
    <node avg_slowdown_ratio="0.988748874887" id="262185724" type="priority" weight_num="1.0" weight_sum="0.988748874887" x="8693.25" y="11940.77" />
    <node avg_slowdown_ratio="0.988660907125" id="cluster_1807153980_1845037581_1845037596" type="priority" weight_num="2.0" weight_sum="1.97732181425" x="9711.38" y="9479.16" />
    <node avg_slowdown_ratio="0.988602279544" id="432445058#6-AddedOffRampNode" type="priority" weight_num="1.0" weight_sum="0.988602279544" x="9348.31" y="11597.67" />
    <node avg_slowdown_ratio="0.988601955635" id="262111055" type="priority" weight_num="2.0" weight_sum="1.97720391127" x="8864.46" y="8948.75" />
    <node avg_slowdown_ratio="0.988480921527" id="261703004" type="priority" weight_num="3.0" weight_sum="2.96544276458" x="5880.50" y="7533.00" />
    <node avg_slowdown_ratio="0.988480921527" id="262111113" type="priority" weight_num="3.0" weight_sum="2.96544276458" x="9228.39" y="7960.61" />
    <node avg_slowdown_ratio="0.988450824685" id="261836191" type="priority" weight_num="2.0" weight_sum="1.97690164937" x="9595.62" y="7225.38" />
    <node avg_slowdown_ratio="0.988300719695" id="263008580" type="priority" weight_num="2.0" weight_sum="1.97660143939" x="14363.49" y="3951.87" />
    <node avg_slowdown_ratio="0.98829915389" id="261763329" type="priority" weight_num="2.0" weight_sum="1.97659830778" x="7461.32" y="6587.94" />
    <node avg_slowdown_ratio="0.988298829883" id="261665694" type="priority" weight_num="1.0" weight_sum="0.988298829883" x="10938.10" y="5796.45" />
    <node avg_slowdown_ratio="0.988298829883" id="318274914#20-AddedOnRampNode" type="priority" weight_num="1.0" weight_sum="0.988298829883" x="7448.45" y="6626.39" />
    <node avg_slowdown_ratio="0.988298829883" id="434375951#6-AddedOnRampNode" type="priority" weight_num="1.0" weight_sum="0.988298829883" x="11080.43" y="5626.54" />
    <node avg_slowdown_ratio="0.988240940727" id="2928747053" type="priority" weight_num="3.0" weight_sum="2.96472282218" x="8935.96" y="11851.46" />
    <node avg_slowdown_ratio="0.98815142462" id="261836321" type="priority" weight_num="2.0" weight_sum="1.97630284924" x="9487.33" y="7133.17" />
    <node avg_slowdown_ratio="0.988120950325" id="2410894260" type="priority" weight_num="4.0" weight_sum="3.9524838013" x="8769.60" y="10001.11" />
    <node avg_slowdown_ratio="0.988120950325" id="263016243" type="priority" weight_num="2.0" weight_sum="1.97624190065" x="11571.39" y="4171.63" />
    <node avg_slowdown_ratio="0.988120950324" id="1070237061" type="priority" weight_num="1.0" weight_sum="0.988120950324" x="7419.03" y="10649.22" />
    <node avg_slowdown_ratio="0.988120950324" id="gneJ316" type="priority" weight_num="1.0" weight_sum="0.988120950324" x="9382.24" y="12059.73" />
    <node avg_slowdown_ratio="0.98800239952" id="1038949805" type="priority" weight_num="1.0" weight_sum="0.98800239952" x="6978.46" y="7262.04" />
    <node avg_slowdown_ratio="0.98800239952" id="232754823#4-AddedOnRampNode" type="priority" weight_num="1.0" weight_sum="0.98800239952" x="9541.14" y="11315.92" />
    <node avg_slowdown_ratio="0.98800239952" id="24156174#7-AddedOffRampNode" type="priority" weight_num="1.0" weight_sum="0.98800239952" x="9787.37" y="7187.19" />
    <node avg_slowdown_ratio="0.98800239952" id="811037812" type="priority" weight_num="1.0" weight_sum="0.98800239952" x="8963.86" y="9025.85" />
    <node avg_slowdown_ratio="0.988000959923" id="263016209" type="priority" weight_num="3.0" weight_sum="2.96400287977" x="12226.33" y="4525.06" />
    <node avg_slowdown_ratio="0.988000959923" id="2928747038" type="priority" weight_num="3.0" weight_sum="2.96400287977" x="8816.79" y="11761.02" />
    <node avg_slowdown_ratio="0.98794215239" id="262109485" type="priority" weight_num="2.0" weight_sum="1.97588430478" x="9996.04" y="6935.26" />
    <node avg_slowdown_ratio="0.98794193645" id="2358344907" type="priority" weight_num="2.0" weight_sum="1.9758838729" x="9580.20" y="10920.90" />
    <node avg_slowdown_ratio="0.987940964725" id="1362815461" type="priority" weight_num="2.0" weight_sum="1.97588192945" x="7154.64" y="11001.57" />
    <node avg_slowdown_ratio="0.98794096472" id="2928747035" type="priority" weight_num="4.0" weight_sum="3.95176385888" x="8897.74" y="11822.45" />
    <node avg_slowdown_ratio="0.987831348263" id="1740284915" type="priority" weight_num="3.0" weight_sum="2.96349404479" x="15516.53" y="5664.87" />
    <node avg_slowdown_ratio="0.987801287837" id="cluster_2569477313_2569477377_287420016_3404867268_3404867269" tl="cluster_2569477313_2569477377_287420016_3404867268_3404867269" type="traffic_light" weight_num="3.0" weight_sum="2.96340386351" x="9367.08" y="12024.59" />
    <node avg_slowdown_ratio="0.987760979123" id="261703041" type="priority" weight_num="3.0" weight_sum="2.96328293737" x="5739.62" y="7657.30" />
    <node avg_slowdown_ratio="0.987760979123" id="261765361" type="priority" weight_num="3.0" weight_sum="2.96328293737" x="7115.04" y="7281.64" />
    <node avg_slowdown_ratio="0.987760979123" id="263016232" type="priority" weight_num="3.0" weight_sum="2.96328293737" x="11962.26" y="4649.22" />
    <node avg_slowdown_ratio="0.987760979122" id="1320235549" type="priority" weight_num="1.0" weight_sum="0.987760979122" x="12118.92" y="5365.99" />
    <node avg_slowdown_ratio="0.98776097912" id="263016176" type="priority" weight_num="3.0" weight_sum="2.96328293736" x="11880.05" y="4477.07" />
    <node avg_slowdown_ratio="0.98776097912" id="3272344780" type="priority" weight_num="2.0" weight_sum="1.97552195824" x="5951.65" y="7549.52" />
    <node avg_slowdown_ratio="0.98770245951" id="3387077965" type="priority" weight_num="2.0" weight_sum="1.97540491902" x="12449.26" y="11076.01" />
    <node avg_slowdown_ratio="0.98770224357" id="261830171" type="priority" weight_num="2.0" weight_sum="1.97540448714" x="8941.17" y="7119.01" />
    <node avg_slowdown_ratio="0.987700299725" id="2089502246" type="priority" weight_num="2.0" weight_sum="1.97540059945" x="9011.61" y="10899.77" />
    <node avg_slowdown_ratio="0.98758174931" id="1813842873" type="priority" weight_num="2.0" weight_sum="1.97516349862" x="9194.79" y="12046.62" />
    <node avg_slowdown_ratio="0.987579211485" id="261765443" type="priority" weight_num="2.0" weight_sum="1.97515842297" x="7654.49" y="6376.11" />
    <node avg_slowdown_ratio="0.987402519496" id="1065139585" type="priority" weight_num="1.0" weight_sum="0.987402519496" x="6367.27" y="9243.87" />
    <node avg_slowdown_ratio="0.987402519496" id="26244311#12-AddedOffRampNode" type="priority" weight_num="1.0" weight_sum="0.987402519496" x="9099.52" y="10965.41" />
    <node avg_slowdown_ratio="0.987402519496" id="2927613059" type="priority" weight_num="1.0" weight_sum="0.987402519496" x="8778.35" y="11590.70" />
    <node avg_slowdown_ratio="0.987402519496" id="70204651-AddedOffRampNode" type="priority" weight_num="1.0" weight_sum="0.987402519496" x="17554.64" y="4846.83" />
    <node avg_slowdown_ratio="0.987402519495" id="3644721337" type="priority" weight_num="2.0" weight_sum="1.97480503899" x="4479.62" y="7514.20" />
    <node avg_slowdown_ratio="0.987398739875" id="263016334" type="priority" weight_num="2.0" weight_sum="1.97479747975" x="11604.60" y="5038.05" />
    <node avg_slowdown_ratio="0.987398739874" id="2326636612" type="priority" weight_num="1.0" weight_sum="0.987398739874" x="16234.99" y="4016.58" />
    <node avg_slowdown_ratio="0.987398739874" id="434375951#2-AddedOffRampNode" type="priority" weight_num="1.0" weight_sum="0.987398739874" x="11461.75" y="5186.81" />
    <node avg_slowdown_ratio="0.98732211801" id="cluster_1835067182_1835067190" type="priority" weight_num="3.0" weight_sum="2.96196635403" x="8795.33" y="11615.80" />
    <node avg_slowdown_ratio="0.987041036717" id="1836783794" type="priority" weight_num="1.0" weight_sum="0.987041036717" x="6265.14" y="9114.05" />
    <node avg_slowdown_ratio="0.987041036717" id="2146994805" type="priority" weight_num="3.0" weight_sum="2.96112311015" x="4124.51" y="7435.47" />
    <node avg_slowdown_ratio="0.987041036717" id="261763330" type="priority" weight_num="3.0" weight_sum="2.96112311015" x="7423.51" y="6553.20" />
    <node avg_slowdown_ratio="0.987041036717" id="2928746240" type="priority" weight_num="4.0" weight_sum="3.94816414687" x="8829.65" y="11912.69" />
    <node avg_slowdown_ratio="0.987041036715" id="1788613913" type="priority" weight_num="4.0" weight_sum="3.94816414686" x="8426.39" y="8571.52" />
    <node avg_slowdown_ratio="0.98698817842" id="cluster_261671927_261671928_261671933_261671934" tl="cluster_261671927_261671928_261671933_261671934" type="traffic_light" weight_num="4.0" weight_sum="3.94795271368" x="7539.20" y="6505.64" />
    <node avg_slowdown_ratio="0.986948694869" id="1362835716" type="priority" weight_num="1.0" weight_sum="0.986948694869" x="7568.85" y="6479.42" />
    <node avg_slowdown_ratio="0.986948694869" id="1813316915" type="priority" weight_num="1.0" weight_sum="0.986948694869" x="15367.37" y="5714.08" />
    <node avg_slowdown_ratio="0.986948694869" id="263017526" type="priority" weight_num="1.0" weight_sum="0.986948694869" x="10469.51" y="5595.54" />
    <node avg_slowdown_ratio="0.986948694869" id="434395747#7-AddedOffRampNode" type="priority" weight_num="1.0" weight_sum="0.986948694869" x="13546.26" y="4137.07" />
    <node avg_slowdown_ratio="0.986921046317" id="1845017082" type="priority" weight_num="3.0" weight_sum="2.96076313895" x="9568.83" y="9289.91" />
    <node avg_slowdown_ratio="0.986876882048" id="cluster_261669597_261669682_3510035109" type="priority" weight_num="4.0" weight_sum="3.94750752819" x="9023.25" y="11368.59" />
    <node avg_slowdown_ratio="0.986861051115" id="263017739" type="priority" weight_num="2.0" weight_sum="1.97372210223" x="12040.29" y="5184.53" />
    <node avg_slowdown_ratio="0.986802639472" id="1052165808" type="priority" weight_num="1.0" weight_sum="0.986802639472" x="7275.55" y="7459.67" />
    <node avg_slowdown_ratio="0.986802639472" id="1052165967" type="priority" weight_num="1.0" weight_sum="0.986802639472" x="7575.95" y="7760.32" />
    <node avg_slowdown_ratio="0.986802639472" id="1845037561" type="priority" weight_num="1.0" weight_sum="0.986802639472" x="9613.05" y="9498.89" />
    <node avg_slowdown_ratio="0.986802639472" id="1875944306" type="priority" weight_num="1.0" weight_sum="0.986802639472" x="8517.85" y="9736.17" />
    <node avg_slowdown_ratio="0.986802639472" id="26244311#12-AddedOnRampNode" type="priority" weight_num="1.0" weight_sum="0.986802639472" x="9091.57" y="10959.81" />
    <node avg_slowdown_ratio="0.986802639472" id="3162585222" type="priority" weight_num="1.0" weight_sum="0.986802639472" x="9181.28" y="11022.99" />
    <node avg_slowdown_ratio="0.986802639472" id="3883219599" type="priority" weight_num="1.0" weight_sum="0.986802639472" x="9493.43" y="11281.57" />
    <node avg_slowdown_ratio="0.986802639472" id="cluster_262111902_262111906_262111932" type="priority" weight_num="1.0" weight_sum="0.986802639472" x="8078.70" y="9251.69" />
    <node avg_slowdown_ratio="0.986802639472" id="gneJ286" type="priority" weight_num="1.0" weight_sum="0.986802639472" x="9381.16" y="8593.91" />
    <node avg_slowdown_ratio="0.9867701673" id="262185721" type="priority" weight_num="2.0" weight_sum="1.9735403346" x="8679.38" y="11907.47" />
    <node avg_slowdown_ratio="0.98668236115" id="997415118" type="priority" weight_num="2.0" weight_sum="1.9733647223" x="8755.13" y="7346.71" />
    <node avg_slowdown_ratio="0.986681065517" id="1497205624" type="priority" weight_num="3.0" weight_sum="2.96004319655" x="9621.42" y="9326.83" />
    <node avg_slowdown_ratio="0.986561075113" id="261703059" type="priority" weight_num="3.0" weight_sum="2.95968322534" x="5819.42" y="7603.96" />
    <node avg_slowdown_ratio="0.986501079915" id="1813823450" type="priority" weight_num="2.0" weight_sum="1.97300215983" x="9513.43" y="11800.86" />
    <node avg_slowdown_ratio="0.98649897387" id="261763327" type="priority" weight_num="2.0" weight_sum="1.97299794774" x="7384.52" y="6677.77" />
    <node avg_slowdown_ratio="0.986498649865" id="24156180#8-AddedOnRampNode" type="priority" weight_num="1.0" weight_sum="0.986498649865" x="11685.98" y="4979.99" />