<?xml version='1.0' encoding='UTF-8'?>
<nodes xmlns:xsi="http://www.w3.org/2001/XMLSchema-instance" version="0.27" xsi:noNamespaceSchemaLocation="http://sumo.dlr.de/xsd/nodes_file.xsd">
    <location convBoundary="2208.92,522.44,21219.92,15402.46" netOffset="-224973.31,-2700122.99" origBoundary="54.286966,24.391306,54.609531,24.591038" projParameter="+proj=utm +zone=40 +ellps=WGS84 +datum=WGS84 +units=m +no_defs" />

    <node id="node_0" type="priority" x="17782.67" y="3111.06" />
    <node id="node_1" type="priority" x="12253.07" y="10273.92" />
    <node id="node_2" type="priority" x="11357.37" y="11167.90" />
    <node id="node_3" tl="GS_1003388266" type="traffic_light" x="9211.77" y="7843.76" />
    <node id="node_4" type="priority" x="10104.41" y="7647.38" />
    <node id="node_5" type="priority" x="9157.79" y="7847.26" />
    <node id="node_6" tl="GS_1003388319" type="traffic_light" x="10172.80" y="7642.66" />
    <node id="node_7" type="priority" x="8269.74" y="11974.05" />
    <node id="node_8" type="priority" x="8712.19" y="11723.58" />
    <node id="node_9" type="priority" x="9990.37" y="10135.54" />
    <node id="node_10" type="priority" x="3380.32" y="9011.83" />
    <node id="node_11" type="priority" x="3399.16" y="8987.87" />
    <node id="node_12" type="priority" x="3410.06" y="7794.91" />
    <node id="node_13" type="priority" x="2393.19" y="7618.78" />
    <node id="node_14" type="unregulated" x="2340.72" y="8113.59" />
    <node id="node_15" type="unregulated" x="2343.00" y="8104.11" />
    <node id="node_16" type="priority" x="3175.71" y="7666.08" />
    <node id="node_17" type="priority" x="18942.91" y="3352.66" />
    <node id="node_18" type="priority" x="18917.19" y="3335.29" />
    <node id="node_19" type="priority" x="9857.99" y="11164.28" />
    <node id="node_20" type="priority" x="9834.30" y="11110.27" />
    <node id="node_21" type="priority" x="9841.70" y="11155.29" />
    <node id="node_22" type="priority" x="7382.02" y="11481.01" />
    <node id="node_23" type="priority" x="9908.90" y="11164.09" />
    <node id="node_24" type="priority" x="7387.84" y="11534.46" />
    <node id="node_25" type="priority" x="6784.82" y="10811.17" />
    <node id="node_26" type="priority" x="6458.59" y="9832.30" />
    <node id="node_27" type="priority" x="3603.38" y="8780.94" />
    <node id="node_28" type="priority" x="5878.41" y="9286.71" />
    <node id="node_29" type="priority" x="6501.97" y="10505.15" />
    <node id="node_30" type="priority" x="6741.29" y="10825.40" />
    <node id="node_31" type="priority" x="6511.70" y="9888.98" />
    <node id="node_32" type="priority" x="6526.47" y="10477.36" />
    <node id="node_33" type="priority" x="6526.09" y="9836.65" />
    <node id="node_34" type="priority" x="6530.55" y="10505.31" />
    <node id="node_35" type="priority" x="6472.01" y="9882.01" />
    <node id="node_36" type="priority" x="7909.94" y="11683.14" />
    <node id="node_37" type="priority" x="8043.99" y="12103.01" />
    <node id="node_38" type="priority" x="7750.20" y="11798.79" />
    <node id="node_39" type="priority" x="7161.81" y="11401.52" />
    <node id="node_40" type="priority" x="8071.20" y="11955.22" />
    <node id="node_41" type="priority" x="7788.68" y="11887.96" />
    <node id="node_42" type="priority" x="7831.48" y="11855.75" />
    <node id="node_43" type="priority" x="8140.86" y="11840.71" />
    <node id="node_44" type="priority" x="7588.17" y="11682.58" />
    <node id="node_45" type="priority" x="7918.79" y="11699.88" />
    <node id="node_46" type="priority" x="7121.61" y="11093.32" />
    <node id="node_47" type="priority" x="7084.51" y="11097.62" />
    <node id="node_48" type="priority" x="7119.69" y="11085.07" />
    <node id="node_49" type="priority" x="7133.02" y="11109.05" />
    <node id="node_50" type="priority" x="7100.36" y="11074.75" />
    <node id="node_51" type="priority" x="7094.10" y="11076.73" />
    <node id="node_52" type="priority" x="7112.67" y="11109.21" />
    <node id="node_53" type="priority" x="7049.96" y="11070.72" />
    <node id="node_54" type="priority" x="7209.46" y="10444.47" />
    <node id="node_55" type="priority" x="7169.47" y="10447.88" />
    <node id="node_56" type="priority" x="11668.64" y="8653.84" />
    <node id="node_57" type="priority" x="6913.69" y="7258.78" />
    <node id="node_58" type="priority" x="7080.37" y="7295.18" />
    <node id="node_59" type="priority" x="6982.34" y="7242.60" />
    <node id="node_60" type="priority" x="7075.49" y="7328.53" />
    <node id="node_61" type="priority" x="6900.13" y="7186.60" />
    <node id="node_62" type="priority" x="6898.50" y="7248.34" />
    <node id="node_63" type="priority" x="6966.82" y="7170.70" />
    <node id="node_64" type="priority" x="6978.46" y="7262.04" />
    <node id="node_65" type="priority" x="6976.99" y="7183.10" />
    <node id="node_66" type="priority" x="7047.07" y="7302.18" />
    <node id="node_67" type="priority" x="6915.29" y="7178.55" />
    <node id="node_68" type="priority" x="6681.34" y="6890.90" />
    <node id="node_69" type="priority" x="6799.24" y="7066.02" />
    <node id="node_70" type="priority" x="6293.03" y="6302.95" />
    <node id="node_71" type="priority" x="6010.84" y="6319.47" />
    <node id="node_72" type="priority" x="6328.24" y="6639.99" />
    <node id="node_73" type="priority" x="5836.26" y="6401.01" />
    <node id="node_74" type="priority" x="6299.97" y="6804.43" />
    <node id="node_75" type="priority" x="6172.61" y="6832.47" />
    <node id="node_76" type="unregulated" x="6684.85" y="6076.76" />
    <node id="node_77" type="priority" x="6010.30" y="6369.89" />
    <node id="node_78" type="priority" x="6070.72" y="6520.86" />
    <node id="node_79" type="priority" x="5896.72" y="6452.21" />
    <node id="node_80" type="unregulated" x="6676.48" y="6086.16" />
    <node id="node_81" type="priority" x="6018.08" y="6403.34" />
    <node id="node_82" type="priority" x="5857.05" y="6423.11" />
    <node id="node_83" type="priority" x="5913.68" y="6401.69" />
    <node id="node_84" type="priority" x="5997.62" y="6425.60" />
    <node id="node_85" type="priority" x="5048.97" y="6399.88" />
    <node id="node_86" type="priority" x="4872.66" y="6581.57" />
    <node id="node_87" type="priority" x="4943.82" y="6615.80" />
    <node id="node_88" type="priority" x="6415.35" y="6161.02" />
    <node id="node_89" type="priority" x="6262.60" y="6337.83" />
    <node id="node_90" type="priority" x="6313.41" y="6279.31" />
    <node id="node_91" type="priority" x="6383.84" y="6468.26" />
    <node id="node_92" type="priority" x="6518.16" y="6450.33" />
    <node id="node_93" type="priority" x="6048.47" y="6941.43" />
    <node id="node_94" type="priority" x="7904.62" y="6055.78" />
    <node id="node_95" type="priority" x="7674.67" y="6309.04" />
    <node id="node_96" type="priority" x="7721.19" y="6238.22" />
    <node id="node_97" type="priority" x="7243.69" y="6201.12" />
    <node id="node_98" type="priority" x="7738.20" y="5691.62" />
    <node id="node_99" type="priority" x="7905.80" y="6038.14" />
    <node id="node_100" type="priority" x="7811.24" y="6167.52" />
    <node id="node_101" type="priority" x="7170.14" y="6260.69" />
    <node id="node_102" type="priority" x="7671.60" y="5694.32" />
    <node id="node_103" type="priority" x="7614.06" y="5789.93" />
    <node id="node_104" type="priority" x="7592.34" y="5790.36" />
    <node id="node_105" type="priority" x="7611.77" y="6368.11" />
    <node id="node_106" type="priority" x="7677.94" y="6324.30" />
    <node id="node_107" type="priority" x="7623.49" y="5797.95" />
    <node id="node_108" type="priority" x="7609.19" y="5770.71" />
    <node id="node_109" type="priority" x="7190.35" y="6194.45" />
    <node id="node_110" type="priority" x="7739.43" y="5896.59" />
    <node id="node_111" type="priority" x="7982.81" y="5897.60" />
    <node id="node_112" type="priority" x="7728.82" y="6266.14" />
    <node id="node_113" type="priority" x="7169.32" y="6199.17" />
    <node id="node_114" type="priority" x="7802.70" y="6140.94" />
    <node id="node_115" type="priority" x="7666.64" y="6303.34" />
    <node id="node_116" type="priority" x="7694.79" y="6305.49" />
    <node id="node_117" type="priority" x="7992.70" y="5956.18" />
    <node id="node_118" type="priority" x="7729.01" y="6244.74" />
    <node id="node_119" type="priority" x="7188.98" y="6267.52" />
    <node id="node_120" type="priority" x="7249.82" y="6244.33" />
    <node id="node_121" type="priority" x="7749.19" y="6241.77" />
    <node id="node_122" type="priority" x="7920.40" y="5966.91" />
    <node id="node_123" type="priority" x="7810.22" y="6147.33" />
    <node id="node_124" type="priority" x="7778.24" y="5929.61" />
    <node id="node_125" type="priority" x="7234.92" y="6184.84" />
    <node id="node_126" type="priority" x="7257.09" y="6277.24" />
    <node id="node_127" type="priority" x="7827.69" y="6147.84" />
    <node id="node_128" type="priority" x="8004.37" y="7222.16" />
    <node id="node_129" type="priority" x="7952.17" y="7151.83" />
    <node id="node_130" type="priority" x="7900.60" y="7214.52" />
    <node id="node_131" type="priority" x="7994.38" y="7187.97" />
    <node id="node_132" type="priority" x="7207.53" y="7454.43" />
    <node id="node_133" tl="GS_1052165761" type="traffic_light" x="9241.47" y="7917.35" />
    <node id="node_134" type="priority" x="6308.89" y="7892.75" />
    <node id="node_135" type="priority" x="8434.97" y="7000.28" />
    <node id="node_136" type="priority" x="8780.80" y="6625.91" />
    <node id="node_137" type="priority" x="8762.64" y="6647.42" />
    <node id="node_138" type="priority" x="8000.24" y="8205.35" />
    <node id="node_139" type="priority" x="6163.48" y="8165.88" />
    <node id="node_140" type="priority" x="7275.55" y="7459.67" />
    <node id="node_141" type="priority" x="6319.38" y="7957.22" />
    <node id="node_142" type="priority" x="5754.25" y="8645.54" />
    <node id="node_143" type="priority" x="7515.93" y="7748.49" />
    <node id="node_144" type="priority" x="8559.48" y="6596.25" />
    <node id="node_145" type="priority" x="7527.33" y="7816.37" />
    <node id="node_146" type="priority" x="6371.75" y="7894.19" />
    <node id="node_147" type="priority" x="7217.52" y="7529.16" />
    <node id="node_148" type="priority" x="9185.27" y="7806.75" />
    <node id="node_149" type="priority" x="9300.31" y="6523.37" />
    <node id="node_150" type="priority" x="7205.51" y="7520.59" />
    <node id="node_151" type="priority" x="8659.84" y="6562.17" />
    <node id="node_152" type="priority" x="9338.42" y="6530.45" />
    <node id="node_153" type="priority" x="7507.76" y="7811.14" />
    <node id="node_154" type="priority" x="8367.19" y="6942.82" />
    <node id="node_155" type="priority" x="8736.39" y="6678.51" />
    <node id="node_156" type="priority" x="8753.35" y="6760.96" />
    <node id="node_157" type="priority" x="7575.95" y="7760.32" />
    <node id="node_158" type="priority" x="8583.02" y="6616.25" />
    <node id="node_159" type="priority" x="7270.52" y="7514.61" />
    <node id="node_160" type="priority" x="8433.53" y="7072.36" />
    <node id="node_161" type="priority" x="9224.68" y="7935.87" />
    <node id="node_162" type="priority" x="6367.57" y="7877.49" />
    <node id="node_163" type="priority" x="7569.16" y="7739.89" />
    <node id="node_164" type="priority" x="6371.42" y="7946.20" />
    <node id="node_165" type="priority" x="6301.82" y="7956.69" />
    <node id="node_166" type="priority" x="5991.97" y="8291.10" />
    <node id="node_167" type="priority" x="9231.81" y="7851.40" />
    <node id="node_168" type="priority" x="6300.37" y="7910.59" />
    <node id="node_169" type="priority" x="8691.91" y="6640.13" />
    <node id="node_170" type="priority" x="5702.19" y="8659.36" />
    <node id="node_171" tl="GS_1052166069" type="traffic_light" x="9157.08" y="7939.01" />
    <node id="node_172" type="priority" x="8306.01" y="7017.05" />
    <node id="node_173" type="priority" x="6363.01" y="7958.73" />
    <node id="node_174" type="priority" x="8374.50" y="7074.39" />
    <node id="node_175" type="priority" x="7508.84" y="7761.82" />
    <node id="node_176" type="priority" x="7203.72" y="7476.52" />
    <node id="node_177" type="priority" x="6231.97" y="8222.95" />
    <node id="node_178" type="priority" x="8042.37" y="8202.65" />
    <node id="node_179" type="priority" x="8384.21" y="6957.25" />
    <node id="node_180" type="priority" x="7259.51" y="7526.60" />
    <node id="node_181" type="priority" x="8739.21" y="6585.56" />
    <node id="node_182" type="priority" x="9135.43" y="7931.03" />
    <node id="node_183" type="priority" x="8717.00" y="6609.57" />
    <node id="node_184" type="priority" x="7262.54" y="7452.91" />
    <node id="node_185" type="priority" x="8325.50" y="7033.38" />
    <node id="node_186" tl="GS_1052166282" type="traffic_light" x="9130.99" y="7857.62" />
    <node id="node_187" type="priority" x="7315.54" y="10277.93" />
    <node id="node_188" type="priority" x="7123.69" y="10384.51" />
    <node id="node_189" type="priority" x="7469.46" y="10601.46" />
    <node id="node_190" type="priority" x="7793.61" y="10859.97" />
    <node id="node_191" type="priority" x="7555.16" y="10371.96" />
    <node id="node_192" type="priority" x="7516.93" y="10423.52" />
    <node id="node_193" type="priority" x="7640.16" y="10433.72" />
    <node id="node_194" type="priority" x="7308.94" y="10415.26" />
    <node id="node_195" type="priority" x="7496.94" y="10450.49" />
    <node id="node_196" type="priority" x="7846.58" y="10862.03" />
    <node id="node_197" type="priority" x="7294.91" y="10882.38" />
    <node id="node_198" type="priority" x="7451.08" y="10512.34" />
    <node id="node_199" type="priority" x="7599.61" y="10487.01" />
    <node id="node_200" type="priority" x="7218.55" y="10348.70" />
    <node id="node_201" type="priority" x="7295.13" y="10840.05" />
    <node id="node_202" type="priority" x="7515.37" y="10256.52" />
    <node id="node_203" type="priority" x="7444.69" y="10637.70" />
    <node id="node_204" type="priority" x="7489.69" y="10324.37" />
    <node id="node_205" type="priority" x="7458.66" y="10630.81" />
    <node id="node_206" type="priority" x="7326.35" y="10819.72" />
    <node id="node_207" type="priority" x="7433.13" y="10403.30" />
    <node id="node_208" type="priority" x="7351.83" y="10550.75" />
    <node id="node_209" type="priority" x="7645.70" y="10561.22" />
    <node id="node_210" type="priority" x="7463.80" y="10425.98" />
    <node id="node_211" type="priority" x="7379.36" y="10855.76" />
    <node id="node_212" type="priority" x="7412.42" y="10691.51" />
    <node id="node_213" type="priority" x="7579.08" y="10513.97" />
    <node id="node_214" type="priority" x="7418.20" y="10487.88" />
    <node id="node_215" type="priority" x="7538.04" y="10395.04" />
    <node id="node_216" type="priority" x="7540.09" y="10275.03" />
    <node id="node_217" type="priority" x="7727.57" y="10622.99" />
    <node id="node_218" type="priority" x="7652.18" y="10417.94" />
    <node id="node_219" type="priority" x="7621.49" y="10458.27" />
    <node id="node_220" type="priority" x="7567.83" y="10354.86" />
    <node id="node_221" type="priority" x="7704.52" y="10480.49" />
    <node id="node_222" type="priority" x="7638.26" y="10744.50" />
    <node id="node_223" type="priority" x="7097.12" y="10434.08" />
    <node id="node_224" type="priority" x="7388.39" y="10465.68" />
    <node id="node_225" type="priority" x="7248.22" y="10371.83" />
    <node id="node_226" type="priority" x="7715.97" y="10464.86" />
    <node id="node_227" type="priority" x="7301.07" y="10267.20" />
    <node id="node_228" type="priority" x="7877.19" y="10755.39" />
    <node id="node_229" tl="GS_1061695272" type="traffic_light" x="7852.75" y="10903.93" />
    <node id="node_230" type="priority" x="7326.10" y="10791.02" />
    <node id="node_231" tl="GS_1061695290" type="traffic_light" x="7831.45" y="10853.26" />
    <node id="node_232" type="priority" x="7516.50" y="10287.02" />
    <node id="node_233" type="priority" x="8700.22" y="7490.67" />
    <node id="node_234" type="priority" x="9701.96" y="7256.94" />
    <node id="node_235" type="priority" x="9816.26" y="7030.70" />
    <node id="node_236" type="priority" x="9886.21" y="7033.16" />
    <node id="node_237" type="priority" x="9645.48" y="7265.50" />
    <node id="node_238" type="priority" x="9740.14" y="7121.90" />
    <node id="node_239" type="priority" x="8881.18" y="7281.92" />
    <node id="node_240" type="priority" x="9760.58" y="7186.42" />
    <node id="node_241" type="priority" x="8655.67" y="7493.32" />
    <node id="node_242" type="priority" x="8632.41" y="7434.44" />
    <node id="node_243" type="priority" x="6395.53" y="8642.01" />
    <node id="node_244" type="priority" x="6932.79" y="8447.10" />
    <node id="node_245" type="priority" x="6539.78" y="8547.72" />
    <node id="node_246" type="priority" x="6999.37" y="8479.43" />
    <node id="node_247" type="priority" x="6352.97" y="8736.58" />
    <node id="node_248" type="priority" x="6425.43" y="8531.29" />
    <node id="node_249" type="priority" x="6367.27" y="9243.87" />
    <node id="node_250" type="priority" x="6522.12" y="8527.71" />
    <node id="node_251" type="priority" x="6461.31" y="8754.95" />
    <node id="node_252" type="priority" x="6556.07" y="8561.70" />
    <node id="node_253" type="priority" x="6296.85" y="9183.89" />
    <node id="node_254" type="priority" x="5782.64" y="8724.18" />
    <node id="node_255" type="priority" x="6938.27" y="8484.88" />
    <node id="node_256" type="priority" x="6325.29" y="8579.55" />
    <node id="node_257" type="priority" x="6298.52" y="9241.28" />
    <node id="node_258" type="priority" x="6479.06" y="8459.99" />
    <node id="node_259" type="priority" x="6370.42" y="8714.69" />
    <node id="node_260" type="priority" x="6366.34" y="9221.41" />
    <node id="node_261" type="priority" x="5771.02" y="8653.15" />
    <node id="node_262" type="priority" x="6360.47" y="8608.86" />
    <node id="node_263" type="priority" x="6576.99" y="8535.38" />
    <node id="node_264" type="priority" x="6860.33" y="8382.70" />
    <node id="node_265" type="priority" x="6372.91" y="9180.19" />
    <node id="node_266" type="priority" x="6312.13" y="9247.96" />
    <node id="node_267" type="priority" x="6290.49" y="8694.56" />
    <node id="node_268" type="priority" x="6504.61" y="8549.99" />
    <node id="node_269" type="priority" x="6361.36" y="8781.86" />
    <node id="node_270" type="priority" x="6381.80" y="8629.02" />
    <node id="node_271" type="priority" x="6270.00" y="8722.92" />
    <node id="node_272" type="priority" x="6460.93" y="8484.24" />
    <node id="node_273" type="priority" x="6998.50" y="8439.07" />
    <node id="node_274" type="priority" x="6539.05" y="8506.17" />
    <node id="node_275" type="priority" x="6355.66" y="9171.47" />
    <node id="node_276" type="priority" x="6359.25" y="8705.89" />
    <node id="node_277" type="priority" x="6492.53" y="8441.98" />
    <node id="node_278" type="priority" x="6305.31" y="9172.54" />
    <node id="node_279" type="priority" x="7437.32" y="10775.44" />
    <node id="node_280" type="priority" x="7663.24" y="10880.79" />
    <node id="node_281" type="priority" x="7594.70" y="10975.80" />
    <node id="node_282" type="priority" x="7747.19" y="10941.88" />
    <node id="node_283" type="priority" x="7246.33" y="10904.38" />
    <node id="node_284" type="priority" x="7371.50" y="10928.57" />
    <node id="node_285" type="priority" x="7416.71" y="10958.42" />
    <node id="node_286" type="priority" x="7524.80" y="11042.36" />
    <node id="node_287" type="priority" x="7678.64" y="11037.15" />
    <node id="node_288" type="priority" x="7652.66" y="11071.08" />
    <node id="node_289" type="priority" x="7419.79" y="10680.30" />
    <node id="node_290" type="priority" x="7585.36" y="11110.86" />
    <node id="node_291" type="priority" x="7646.82" y="11104.27" />
    <node id="node_292" type="priority" x="7849.00" y="10921.67" />
    <node id="node_293" tl="GS_1066742878" type="traffic_light" x="7799.83" y="10928.97" />
    <node id="node_294" type="priority" x="7787.11" y="10913.53" />
    <node id="node_295" tl="GS_1066742913" type="traffic_light" x="7772.37" y="10864.50" />
    <node id="node_296" type="priority" x="6512.39" y="9972.41" />
    <node id="node_297" type="priority" x="6441.90" y="10027.82" />
    <node id="node_298" type="priority" x="6405.53" y="10215.42" />
    <node id="node_299" type="priority" x="6487.63" y="10010.25" />
    <node id="node_300" type="priority" x="6409.76" y="9920.91" />
    <node id="node_301" type="priority" x="6401.90" y="10196.54" />
    <node id="node_302" type="priority" x="6315.76" y="9970.44" />
    <node id="node_303" type="priority" x="6467.26" y="9994.05" />
    <node id="node_304" type="priority" x="6387.08" y="10462.61" />
    <node id="node_305" type="priority" x="6367.45" y="10419.79" />
    <node id="node_306" type="priority" x="6245.40" y="10159.13" />
    <node id="node_307" type="priority" x="9711.50" y="11422.26" />
    <node id="node_308" type="priority" x="9122.04" y="11819.29" />
    <node id="node_309" type="priority" x="9441.79" y="11384.69" />
    <node id="node_310" type="priority" x="9426.93" y="11659.46" />
    <node id="node_311" type="priority" x="9269.96" y="11590.70" />
    <node id="node_312" type="priority" x="9159.55" y="11746.98" />
    <node id="node_313" type="priority" x="9209.33" y="11883.07" />
    <node id="node_314" type="priority" x="9301.90" y="11591.13" />
    <node id="node_315" type="priority" x="9166.68" y="11756.41" />
    <node id="node_316" type="priority" x="9475.58" y="11409.91" />
    <node id="node_317" type="priority" x="9594.61" y="11687.22" />
    <node id="node_318" type="priority" x="9234.48" y="11660.90" />
    <node id="node_319" type="priority" x="9732.00" y="11454.39" />
    <node id="node_320" tl="GS_1067889614" type="traffic_light" x="9695.13" y="11349.95" />
    <node id="node_321" type="priority" x="9703.03" y="11371.25" />
    <node id="node_322" type="priority" x="9184.86" y="11769.91" />
    <node id="node_323" type="priority" x="9525.12" y="11304.68" />
    <node id="node_324" type="priority" x="9360.13" y="11774.24" />
    <node id="node_325" type="priority" x="9621.59" y="11375.31" />
    <node id="node_326" type="priority" x="9478.73" y="11649.69" />
    <node id="node_327" type="priority" x="9487.90" y="11711.87" />
    <node id="node_328" type="priority" x="9292.17" y="11865.13" />
    <node id="node_329" type="priority" x="9656.88" y="11435.00" />
    <node id="node_330" type="priority" x="9371.75" y="11477.75" />
    <node id="node_331" type="priority" x="9303.97" y="11611.54" />
    <node id="node_332" type="priority" x="9375.21" y="11737.15" />
    <node id="node_333" type="priority" x="9253.67" y="11675.10" />
    <node id="node_334" type="priority" x="9229.50" y="11927.46" />
    <node id="node_335" type="priority" x="9251.10" y="11637.51" />
    <node id="node_336" type="priority" x="9387.12" y="11778.48" />
    <node id="node_337" type="priority" x="9405.68" y="11502.94" />
    <node id="node_338" type="priority" x="9483.53" y="11670.04" />
    <node id="node_339" type="priority" x="9708.10" y="11435.29" />
    <node id="node_340" type="priority" x="9792.27" y="11424.39" />
    <node id="node_341" type="priority" x="9146.91" y="11784.26" />
    <node id="node_342" type="priority" x="9303.68" y="11892.93" />
    <node id="node_343" type="priority" x="9736.45" y="11500.20" />
    <node id="node_344" type="priority" x="9638.98" y="11430.85" />
    <node id="node_345" type="priority" x="9628.89" y="11359.91" />
    <node id="node_346" type="priority" x="9744.49" y="11447.56" />
    <node id="node_347" type="priority" x="8966.13" y="4305.25" />
    <node id="node_348" type="priority" x="9377.23" y="4349.80" />
    <node id="node_349" type="priority" x="8581.13" y="4309.73" />
    <node id="node_350" type="priority" x="9182.84" y="4576.93" />
    <node id="node_351" type="priority" x="9207.57" y="4668.42" />
    <node id="node_352" type="priority" x="9156.56" y="4284.18" />
    <node id="node_353" type="priority" x="8670.68" y="4249.99" />
    <node id="node_354" type="priority" x="8872.39" y="4127.89" />
    <node id="node_355" type="priority" x="9192.35" y="4375.07" />
    <node id="node_356" type="priority" x="9016.49" y="4433.87" />
    <node id="node_357" type="priority" x="9138.13" y="4237.35" />
    <node id="node_358" type="priority" x="8911.86" y="4113.13" />
    <node id="node_359" type="priority" x="8983.30" y="4349.46" />
    <node id="node_360" type="priority" x="9430.04" y="4330.27" />
    <node id="node_361" type="priority" x="8484.77" y="4327.88" />
    <node id="node_362" type="priority" x="8531.09" y="4328.91" />
    <node id="node_363" type="priority" x="8876.32" y="4891.02" />
    <node id="node_364" type="priority" x="8972.62" y="4891.22" />
    <node id="node_365" type="priority" x="7610.57" y="11037.87" />
    <node id="node_366" type="priority" x="7577.11" y="11080.53" />
    <node id="node_367" type="priority" x="7663.25" y="11164.43" />
    <node id="node_368" type="priority" x="7670.21" y="11099.22" />
    <node id="node_369" type="priority" x="7681.05" y="11194.61" />
    <node id="node_370" type="priority" x="7604.17" y="11191.74" />
    <node id="node_371" type="priority" x="7635.26" y="10981.74" />
    <node id="node_372" type="priority" x="7399.81" y="10749.81" />
    <node id="node_373" type="priority" x="7437.05" y="10614.65" />
    <node id="node_374" type="priority" x="8331.84" y="15104.03" />
    <node id="node_375" type="priority" x="8481.40" y="13056.47" />
    <node id="node_376" type="priority" x="8312.67" y="15089.36" />
    <node id="node_377" type="priority" x="7587.42" y="13930.47" />
    <node id="node_378" type="priority" x="8281.95" y="15165.64" />
    <node id="node_379" type="priority" x="7419.03" y="10649.22" />
    <node id="node_380" type="priority" x="17487.08" y="2120.95" />
    <node id="node_381" type="priority" x="17515.12" y="2079.52" />
    <node id="node_382" type="priority" x="17505.18" y="2111.78" />
    <node id="node_383" type="priority" x="17504.78" y="2115.02" />
    <node id="node_384" type="priority" x="17315.79" y="2167.45" />
    <node id="node_385" type="priority" x="17488.37" y="2102.35" />
    <node id="node_386" type="priority" x="17302.22" y="2154.98" />
    <node id="node_387" type="priority" x="17302.74" y="2159.07" />
    <node id="node_388" type="priority" x="12139.66" y="6383.79" />
    <node id="node_389" type="priority" x="10488.49" y="9277.25" />
    <node id="node_390" type="priority" x="4706.98" y="8252.76" />
    <node id="node_391" type="priority" x="4752.48" y="8252.40" />
    <node id="node_392" type="priority" x="3603.47" y="7808.10" />
    <node id="node_393" type="priority" x="5679.56" y="7192.69" />
    <node id="node_394" type="priority" x="5520.00" y="7239.50" />
    <node id="node_395" type="priority" x="5156.59" y="7327.95" />
    <node id="node_396" type="priority" x="6648.30" y="10925.46" />
    <node id="node_397" type="priority" x="6719.13" y="10664.99" />
    <node id="node_398" type="priority" x="6836.91" y="10738.26" />
    <node id="node_399" type="priority" x="6814.82" y="10732.71" />
    <node id="node_400" type="priority" x="6694.37" y="10925.47" />
    <node id="node_401" type="priority" x="6663.44" y="10740.31" />
    <node id="node_402" type="priority" x="6873.97" y="10598.51" />
    <node id="node_403" type="priority" x="6883.07" y="10675.94" />
    <node id="node_404" type="priority" x="6887.83" y="10588.31" />
    <node id="node_405" type="priority" x="6954.36" y="10580.67" />
    <node id="node_406" type="priority" x="9331.54" y="4920.61" />
    <node id="node_407" type="priority" x="9359.28" y="5046.30" />
    <node id="node_408" type="priority" x="9390.58" y="4933.14" />
    <node id="node_409" type="priority" x="9313.92" y="5050.73" />
    <node id="node_410" type="priority" x="9301.87" y="5039.72" />
    <node id="node_411" type="priority" x="9296.04" y="4993.16" />
    <node id="node_412" type="priority" x="12454.85" y="4540.51" />
    <node id="node_413" type="priority" x="12769.98" y="4397.68" />
    <node id="node_414" type="priority" x="9821.85" y="8446.75" />
    <node id="node_415" type="priority" x="10815.66" y="8755.66" />
    <node id="node_416" type="priority" x="13189.52" y="5306.21" />
    <node id="node_417" type="priority" x="8433.61" y="10922.13" />
    <node id="node_418" type="priority" x="7662.64" y="10348.07" />
    <node id="node_419" tl="GS_1163010482" type="traffic_light" x="8479.97" y="10915.92" />
    <node id="node_420" type="priority" x="9722.99" y="7326.71" />
    <node id="node_421" type="priority" x="10804.26" y="6937.95" />
    <node id="node_422" type="priority" x="11048.42" y="6458.46" />
    <node id="node_423" tl="GS_1166168346" type="traffic_light" x="11119.66" y="6558.16" />
    <node id="node_424" type="priority" x="11095.07" y="6397.73" />
    <node id="node_425" type="priority" x="11261.68" y="6631.12" />
    <node id="node_426" type="priority" x="11280.18" y="6364.97" />
    <node id="node_427" type="priority" x="11205.54" y="6917.73" />
    <node id="node_428" type="priority" x="11218.36" y="6442.04" />
    <node id="node_429" type="priority" x="10780.81" y="6966.51" />
    <node id="node_430" tl="GS_1166168462" type="traffic_light" x="11214.92" y="6491.78" />
    <node id="node_431" type="priority" x="10969.46" y="6739.14" />
    <node id="node_432" tl="GS_1166168470" type="traffic_light" x="11192.38" y="6419.01" />
    <node id="node_433" type="priority" x="11047.81" y="6359.21" />