<?xml version='1.0' encoding='UTF-8'?>
<nodes xmlns:xsi="http://www.w3.org/2001/XMLSchema-instance" version="0.27" xsi:noNamespaceSchemaLocation="http://sumo.dlr.de/xsd/edges_file.xsd"><node avg_slowdown_ratio="0.999280057598" id="node_10x10" junction="True" old_x="1000.0" old_y="1000.0" type="priority" weight_num="4.0" weight_sum="3.99712023039" x="1000.0" y="1000.0" />
    <node avg_slowdown_ratio="0.0" id="node_00x00" junction="True" old_x="0.0" old_y="0.0" type="priority" weight_num="2.0" weight_sum="0.0" x="0.0" y="0.0" />
    <node avg_slowdown_ratio="0.0" id="node_00x01" junction="True" old_x="0.0" old_y="100.0" type="priority" weight_num="3.0" weight_sum="0.0" x="0.0" y="100.0" />
    <node avg_slowdown_ratio="0.0" id="node_00x02" junction="True" old_x="0.0" old_y="200.0" type="priority" weight_num="3.0" weight_sum="0.0" x="0.0" y="200.0" />
    <node avg_slowdown_ratio="0.0" id="node_00x03" junction="True" old_x="0.0" old_y="300.0" type="priority" weight_num="3.0" weight_sum="0.0" x="0.0" y="300.0" />
    <node avg_slowdown_ratio="0.0" id="node_00x04" junction="True" old_x="0.0" old_y="400.0" type="priority" weight_num="3.0" weight_sum="0.0" x="0.0" y="400.0" />
    <node avg_slowdown_ratio="0.0" id="node_00x05" junction="True" old_x="0.0" old_y="500.0" type="priority" weight_num="3.0" weight_sum="0.0" x="0.0" y="500.0" />
    <node avg_slowdown_ratio="0.0" id="node_00x06" junction="True" old_x="0.0" old_y="600.0" type="priority" weight_num="3.0" weight_sum="0.0" x="0.0" y="600.0" />
    <node avg_slowdown_ratio="0.0" id="node_00x07" junction="True" old_x="0.0" old_y="700.0" type="priority" weight_num="3.0" weight_sum="0.0" x="0.0" y="700.0" />
    <node avg_slowdown_ratio="0.0" id="node_00x08" junction="True" old_x="0.0" old_y="800.0" type="priority" weight_num="3.0" weight_sum="0.0" x="0.0" y="800.0" />
    <node avg_slowdown_ratio="0.0" id="node_00x09" junction="True" old_x="0.0" old_y="900.0" type="priority" weight_num="3.0" weight_sum="0.0" x="0.0" y="900.0" />
    <node avg_slowdown_ratio="0.0" id="node_00x10" junction="True" old_x="0.0" old_y="1000.0" type="priority" weight_num="3.0" weight_sum="0.0" x="0.0" y="1000.0" />
    <node avg_slowdown_ratio="0.0" id="node_00x11" junction="True" old_x="0.0" old_y="1100.0" type="priority" weight_num="3.0" weight_sum="0.0" x="0.0" y="1100.0" />
    <node avg_slowdown_ratio="0.0" id="node_00x12" junction="True" old_x="0.0" old_y="1200.0" type="priority" weight_num="3.0" weight_sum="0.0" x="0.0" y="1200.0" />
    <node avg_slowdown_ratio="0.0" id="node_00x13" junction="True" old_x="0.0" old_y="1300.0" type="priority" weight_num="3.0" weight_sum="0.0" x="0.0" y="1300.0" />
    <node avg_slowdown_ratio="0.0" id="node_00x14" junction="True" old_x="0.0" old_y="1400.0" type="priority" weight_num="3.0" weight_sum="0.0" x="0.0" y="1400.0" />
    <node avg_slowdown_ratio="0.0" id="node_00x15" junction="True" old_x="0.0" old_y="1500.0" type="priority" weight_num="3.0" weight_sum="0.0" x="0.0" y="1500.0" />
    <node avg_slowdown_ratio="0.0" id="node_00x16" junction="True" old_x="0.0" old_y="1600.0" type="priority" weight_num="3.0" weight_sum="0.0" x="0.0" y="1600.0" />
    <node avg_slowdown_ratio="0.0" id="node_00x17" junction="True" old_x="0.0" old_y="1700.0" type="priority" weight_num="3.0" weight_sum="0.0" x="0.0" y="1700.0" />
    <node avg_slowdown_ratio="0.0" id="node_00x18" junction="True" old_x="0.0" old_y="1800.0" type="priority" weight_num="3.0" weight_sum="0.0" x="0.0" y="1800.0" />
    <node avg_slowdown_ratio="0.0" id="node_00x19" junction="True" old_x="0.0" old_y="1900.0" type="priority" weight_num="3.0" weight_sum="0.0" x="0.0" y="1900.0" />
    <node avg_slowdown_ratio="0.0" id="node_00x20" junction="True" old_x="0.0" old_y="2000.0" type="priority" weight_num="2.0" weight_sum="0.0" x="0.0" y="2000.0" />
    <node avg_slowdown_ratio="0.0" id="node_01x00" junction="True" old_x="100.0" old_y="0.0" type="priority" weight_num="3.0" weight_sum="0.0" x="100.0" y="0.0" />
    <node avg_slowdown_ratio="0.0" id="node_01x01" junction="True" old_x="100.0" old_y="100.0" type="priority" weight_num="4.0" weight_sum="0.0" x="100.0" y="100.0" />
    <node avg_slowdown_ratio="0.0" id="node_01x02" junction="True" old_x="100.0" old_y="200.0" type="priority" weight_num="4.0" weight_sum="0.0" x="100.0" y="200.0" />
    <node avg_slowdown_ratio="0.0" id="node_01x03" junction="True" old_x="100.0" old_y="300.0" type="priority" weight_num="4.0" weight_sum="0.0" x="100.0" y="300.0" />
    <node avg_slowdown_ratio="0.0" id="node_01x04" junction="True" old_x="100.0" old_y="400.0" type="priority" weight_num="4.0" weight_sum="0.0" x="100.0" y="400.0" />
    <node avg_slowdown_ratio="0.0" id="node_01x05" junction="True" old_x="100.0" old_y="500.0" type="priority" weight_num="4.0" weight_sum="0.0" x="100.0" y="500.0" />
    <node avg_slowdown_ratio="0.0" id="node_01x06" junction="True" old_x="100.0" old_y="600.0" type="priority" weight_num="4.0" weight_sum="0.0" x="100.0" y="600.0" />
    <node avg_slowdown_ratio="0.0" id="node_01x07" junction="True" old_x="100.0" old_y="700.0" type="priority" weight_num="4.0" weight_sum="0.0" x="100.0" y="700.0" />
    <node avg_slowdown_ratio="0.0" id="node_01x08" junction="True" old_x="100.0" old_y="800.0" type="priority" weight_num="4.0" weight_sum="0.0" x="100.0" y="800.0" />
    <node avg_slowdown_ratio="0.0" id="node_01x09" junction="True" old_x="100.0" old_y="900.0" type="priority" weight_num="4.0" weight_sum="0.0" x="100.0" y="900.0" />
    <node avg_slowdown_ratio="0.0" id="node_01x10" junction="True" old_x="100.0" old_y="1000.0" type="priority" weight_num="4.0" weight_sum="0.0" x="100.0" y="1000.0" />
    <node avg_slowdown_ratio="0.0" id="node_01x11" junction="True" old_x="100.0" old_y="1100.0" type="priority" weight_num="4.0" weight_sum="0.0" x="100.0" y="1100.0" />
    <node avg_slowdown_ratio="0.0" id="node_01x12" junction="True" old_x="100.0" old_y="1200.0" type="priority" weight_num="4.0" weight_sum="0.0" x="100.0" y="1200.0" />
    <node avg_slowdown_ratio="0.0" id="node_01x13" junction="True" old_x="100.0" old_y="1300.0" type="priority" weight_num="4.0" weight_sum="0.0" x="100.0" y="1300.0" />
    <node avg_slowdown_ratio="0.0" id="node_01x14" junction="True" old_x="100.0" old_y="1400.0" type="priority" weight_num="4.0" weight_sum="0.0" x="100.0" y="1400.0" />
    <node avg_slowdown_ratio="0.0" id="node_01x15" junction="True" old_x="100.0" old_y="1500.0" type="priority" weight_num="4.0" weight_sum="0.0" x="100.0" y="1500.0" />
    <node avg_slowdown_ratio="0.0" id="node_01x16" junction="True" old_x="100.0" old_y="1600.0" type="priority" weight_num="4.0" weight_sum="0.0" x="100.0" y="1600.0" />
    <node avg_slowdown_ratio="0.0" id="node_01x17" junction="True" old_x="100.0" old_y="1700.0" type="priority" weight_num="4.0" weight_sum="0.0" x="100.0" y="1700.0" />
    <node avg_slowdown_ratio="0.0" id="node_01x18" junction="True" old_x="100.0" old_y="1800.0" type="priority" weight_num="4.0" weight_sum="0.0" x="100.0" y="1800.0" />
    <node avg_slowdown_ratio="0.0" id="node_01x19" junction="True" old_x="100.0" old_y="1900.0" type="priority" weight_num="4.0" weight_sum="0.0" x="100.0" y="1900.0" />
    <node avg_slowdown_ratio="0.0" id="node_01x20" junction="True" old_x="100.0" old_y="2000.0" type="priority" weight_num="3.0" weight_sum="0.0" x="100.0" y="2000.0" />
    <node avg_slowdown_ratio="0.0" id="node_02x00" junction="True" old_x="200.0" old_y="0.0" type="priority" weight_num="3.0" weight_sum="0.0" x="200.0" y="0.0" />
    <node avg_slowdown_ratio="0.0" id="node_02x01" junction="True" old_x="200.0" old_y="100.0" type="priority" weight_num="4.0" weight_sum="0.0" x="200.0" y="100.0" />
    <node avg_slowdown_ratio="0.0" id="node_02x02" junction="True" old_x="200.0" old_y="200.0" type="priority" weight_num="4.0" weight_sum="0.0" x="200.0" y="200.0" />
    <node avg_slowdown_ratio="0.0" id="node_02x03" junction="True" old_x="200.0" old_y="300.0" type="priority" weight_num="4.0" weight_sum="0.0" x="200.0" y="300.0" />
    <node avg_slowdown_ratio="0.0" id="node_02x04" junction="True" old_x="200.0" old_y="400.0" type="priority" weight_num="4.0" weight_sum="0.0" x="200.0" y="400.0" />
    <node avg_slowdown_ratio="0.0" id="node_02x05" junction="True" old_x="200.0" old_y="500.0" type="priority" weight_num="4.0" weight_sum="0.0" x="200.0" y="500.0" />
    <node avg_slowdown_ratio="0.0" id="node_02x06" junction="True" old_x="200.0" old_y="600.0" type="priority" weight_num="4.0" weight_sum="0.0" x="195.575666164" x_displacement_sum="-4.4243338361" y="597.787833082" y_displacement_sum="-2.21216691805" />
    <node avg_slowdown_ratio="0.0" id="node_02x07" junction="True" old_x="200.0" old_y="700.0" type="priority" weight_num="4.0" weight_sum="0.0" x="157.894736842" x_displacement_sum="-42.1052631579" y="684.210526316" y_displacement_sum="-15.7894736842" />
    <node avg_slowdown_ratio="0.0" id="node_02x08" junction="True" old_x="200.0" old_y="800.0" type="priority" weight_num="4.0" weight_sum="0.0" x="127.494819501" x_displacement_sum="-72.5051804995" y="781.873704875" y_displacement_sum="-18.1262951249" />
    <node avg_slowdown_ratio="0.0" id="node_02x09" junction="True" old_x="200.0" old_y="900.0" type="priority" weight_num="4.0" weight_sum="0.0" x="107.640825432" x_displacement_sum="-92.3591745678" y="888.455103179" y_displacement_sum="-11.544896821" />
    <node avg_slowdown_ratio="0.0" id="node_02x10" junction="True" old_x="200.0" old_y="1000.0" type="priority" weight_num="4.0" weight_sum="0.0" x="100.618324902" x_displacement_sum="-99.3816750984" y="1000.0" y_displacement_sum="0.0" />
    <node avg_slowdown_ratio="0.0" id="node_02x11" junction="True" old_x="200.0" old_y="1100.0" type="priority" weight_num="4.0" weight_sum="0.0" x="107.640825432" x_displacement_sum="-92.3591745678" y="1111.54489682" y_displacement_sum="11.544896821" />
    <node avg_slowdown_ratio="0.0" id="node_02x12" junction="True" old_x="200.0" old_y="1200.0" type="priority" weight_num="4.0" weight_sum="0.0" x="127.494819501" x_displacement_sum="-72.5051804995" y="1218.12629512" y_displacement_sum="18.1262951249" />
    <node avg_slowdown_ratio="0.0" id="node_02x13" junction="True" old_x="200.0" old_y="1300.0" type="priority" weight_num="4.0" weight_sum="0.0" x="157.894736842" x_displacement_sum="-42.1052631579" y="1315.78947368" y_displacement_sum="15.7894736842" />
    <node avg_slowdown_ratio="0.0" id="node_02x14" junction="True" old_x="200.0" old_y="1400.0" type="priority" weight_num="4.0" weight_sum="0.0" x="195.575666164" x_displacement_sum="-4.4243338361" y="1402.21216692" y_displacement_sum="2.21216691805" />
    <node avg_slowdown_ratio="0.0" id="node_02x15" junction="True" old_x="200.0" old_y="1500.0" type="priority" weight_num="4.0" weight_sum="0.0" x="200.0" y="1500.0" />
    <node avg_slowdown_ratio="0.0" id="node_02x16" junction="True" old_x="200.0" old_y="1600.0" type="priority" weight_num="4.0" weight_sum="0.0" x="200.0" y="1600.0" />
    <node avg_slowdown_ratio="0.0" id="node_02x17" junction="True" old_x="200.0" old_y="1700.0" type="priority" weight_num="4.0" weight_sum="0.0" x="200.0" y="1700.0" />
    <node avg_slowdown_ratio="0.0" id="node_02x18" junction="True" old_x="200.0" old_y="1800.0" type="priority" weight_num="4.0" weight_sum="0.0" x="200.0" y="1800.0" />
    <node avg_slowdown_ratio="0.0" id="node_02x19" junction="True" old_x="200.0" old_y="1900.0" type="priority" weight_num="4.0" weight_sum="0.0" x="200.0" y="1900.0" />
    <node avg_slowdown_ratio="0.0" id="node_02x20" junction="True" old_x="200.0" old_y="2000.0" type="priority" weight_num="3.0" weight_sum="0.0" x="200.0" y="2000.0" />
    <node avg_slowdown_ratio="0.0" id="node_03x00" junction="True" old_x="300.0" old_y="0.0" type="priority" weight_num="3.0" weight_sum="0.0" x="300.0" y="0.0" />
    <node avg_slowdown_ratio="0.0" id="node_03x01" junction="True" old_x="300.0" old_y="100.0" type="priority" weight_num="4.0" weight_sum="0.0" x="300.0" y="100.0" />
    <node avg_slowdown_ratio="0.0" id="node_03x02" junction="True" old_x="300.0" old_y="200.0" type="priority" weight_num="4.0" weight_sum="0.0" x="300.0" y="200.0" />
    <node avg_slowdown_ratio="0.0" id="node_03x03" junction="True" old_x="300.0" old_y="300.0" type="priority" weight_num="4.0" weight_sum="0.0" x="300.0" y="300.0" />
    <node avg_slowdown_ratio="0.0" id="node_03x04" junction="True" old_x="300.0" old_y="400.0" type="priority" weight_num="4.0" weight_sum="0.0" x="300.0" y="400.0" />
    <node avg_slowdown_ratio="0.0" id="node_03x05" junction="True" old_x="300.0" old_y="500.0" type="priority" weight_num="4.0" weight_sum="0.0" x="268.165185572" x_displacement_sum="-31.8348144276" y="477.260846837" y_displacement_sum="-22.7391531626" />
    <node avg_slowdown_ratio="0.0" id="node_03x06" junction="True" old_x="300.0" old_y="600.0" type="priority" weight_num="4.0" weight_sum="0.0" x="219.185722253" x_displacement_sum="-80.8142777468" y="553.820412716" y_displacement_sum="-46.1795872839" />
    <node avg_slowdown_ratio="0.0" id="node_03x07" junction="True" old_x="300.0" old_y="700.0" type="priority" weight_num="4.0" weight_sum="0.0" x="173.358526216" x_displacement_sum="-126.641473784" y="645.725082664" y_displacement_sum="-54.2749173359" />
    <node avg_slowdown_ratio="0.0" id="node_03x08" junction="True" old_x="300.0" old_y="800.0" type="priority" weight_num="4.0" weight_sum="0.0" x="135.268684373" x_displacement_sum="-164.731315627" y="752.933909821" y_displacement_sum="-47.0660901791" />
    <node avg_slowdown_ratio="0.0" id="node_03x09" junction="True" old_x="300.0" old_y="900.0" type="priority" weight_num="4.0" weight_sum="0.0" x="109.641312643" x_displacement_sum="-190.358687357" y="872.805901806" y_displacement_sum="-27.1940981938" />
    <node avg_slowdown_ratio="0.0" id="node_03x10" junction="True" old_x="300.0" old_y="1000.0" type="priority" weight_num="4.0" weight_sum="0.0" x="100.603880252" x_displacement_sum="-199.396119748" y="1000.0" y_displacement_sum="0.0" />
    <node avg_slowdown_ratio="0.0" id="node_03x11" junction="True" old_x="300.0" old_y="1100.0" type="priority" weight_num="4.0" weight_sum="0.0" x="109.641312643" x_displacement_sum="-190.358687357" y="1127.19409819" y_displacement_sum="27.1940981938" />
    <node avg_slowdown_ratio="0.0" id="node_03x12" junction="True" old_x="300.0" old_y="1200.0" type="priority" weight_num="4.0" weight_sum="0.0" x="135.268684373" x_displacement_sum="-164.731315627" y="1247.06609018" y_displacement_sum="47.0660901791" />
    <node avg_slowdown_ratio="0.0" id="node_03x13" junction="True" old_x="300.0" old_y="1300.0" type="priority" weight_num="4.0" weight_sum="0.0" x="173.358526216" x_displacement_sum="-126.641473784" y="1354.27491734" y_displacement_sum="54.2749173359" />
    <node avg_slowdown_ratio="0.0" id="node_03x14" junction="True" old_x="300.0" old_y="1400.0" type="priority" weight_num="4.0" weight_sum="0.0" x="219.185722253" x_displacement_sum="-80.8142777468" y="1446.17958728" y_displacement_sum="46.1795872839" />
    <node avg_slowdown_ratio="0.0" id="node_03x15" junction="True" old_x="300.0" old_y="1500.0" type="priority" weight_num="4.0" weight_sum="0.0" x="268.165185572" x_displacement_sum="-31.8348144276" y="1522.73915316" y_displacement_sum="22.7391531626" />
    <node avg_slowdown_ratio="0.0" id="node_03x16" junction="True" old_x="300.0" old_y="1600.0" type="priority" weight_num="4.0" weight_sum="0.0" x="300.0" y="1600.0" />
    <node avg_slowdown_ratio="0.0" id="node_03x17" junction="True" old_x="300.0" old_y="1700.0" type="priority" weight_num="4.0" weight_sum="0.0" x="300.0" y="1700.0" />
    <node avg_slowdown_ratio="0.0" id="node_03x18" junction="True" old_x="300.0" old_y="1800.0" type="priority" weight_num="4.0" weight_sum="0.0" x="300.0" y="1800.0" />
    <node avg_slowdown_ratio="0.0" id="node_03x19" junction="True" old_x="300.0" old_y="1900.0" type="priority" weight_num="4.0" weight_sum="0.0" x="300.0" y="1900.0" />
    <node avg_slowdown_ratio="0.0" id="node_03x20" junction="True" old_x="300.0" old_y="2000.0" type="priority" weight_num="3.0" weight_sum="0.0" x="300.0" y="2000.0" />
    <node avg_slowdown_ratio="0.0" id="node_04x00" junction="True" old_x="400.0" old_y="0.0" type="priority" weight_num="3.0" weight_sum="0.0" x="400.0" y="0.0" />
    <node avg_slowdown_ratio="0.0" id="node_04x01" junction="True" old_x="400.0" old_y="100.0" type="priority" weight_num="4.0" weight_sum="0.0" x="400.0" y="100.0" />
    <node avg_slowdown_ratio="0.0" id="node_04x02" junction="True" old_x="400.0" old_y="200.0" type="priority" weight_num="4.0" weight_sum="0.0" x="400.0" y="200.0" />
    <node avg_slowdown_ratio="0.0" id="node_04x03" junction="True" old_x="400.0" old_y="300.0" type="priority" weight_num="4.0" weight_sum="0.0" x="400.0" y="300.0" />
    <node avg_slowdown_ratio="0.0" id="node_04x04" junction="True" old_x="400.0" old_y="400.0" type="priority" weight_num="4.0" weight_sum="0.0" x="364.069952305" x_displacement_sum="-35.9300476948" y="364.069952305" y_displacement_sum="-35.9300476948" />
    <node avg_slowdown_ratio="0.0" id="node_04x05" junction="True" old_x="400.0" old_y="500.0" type="priority" weight_num="4.0" weight_sum="0.0" x="309.074159374" x_displacement_sum="-90.9258406264" y="424.228466145" y_displacement_sum="-75.7715338554" />
    <node avg_slowdown_ratio="0.0" id="node_04x06" junction="True" old_x="400.0" old_y="600.0" type="priority" weight_num="4.0" weight_sum="0.0" x="251.683711649" x_displacement_sum="-148.316288351" y="501.122474432" y_displacement_sum="-98.8775255675" />
    <node avg_slowdown_ratio="0.0" id="node_04x07" junction="True" old_x="400.0" old_y="700.0" type="priority" weight_num="4.0" weight_sum="0.0" x="195.602627698" x_displacement_sum="-204.397372302" y="597.801313849" y_displacement_sum="-102.198686151" />
    <node avg_slowdown_ratio="0.0" id="node_04x08" junction="True" old_x="400.0" old_y="800.0" type="priority" weight_num="4.0" weight_sum="0.0" x="146.757679181" x_displacement_sum="-253.242320819" y="715.58589306" y_displacement_sum="-84.4141069397" />
    <node avg_slowdown_ratio="0.0" id="node_04x09" junction="True" old_x="400.0" old_y="900.0" type="priority" weight_num="4.0" weight_sum="0.0" x="112.819754547" x_displacement_sum="-287.180245453" y="852.136625758" y_displacement_sum="-47.8633742422" />
    <node avg_slowdown_ratio="0.0" id="node_04x10" junction="True" old_x="400.0" old_y="1000.0" type="priority" weight_num="4.0" weight_sum="0.0" x="100.584619997" x_displacement_sum="-299.415380003" y="1000.0" y_displacement_sum="0.0" />
    <node avg_slowdown_ratio="0.0" id="node_04x11" junction="True" old_x="400.0" old_y="1100.0" type="priority" weight_num="4.0" weight_sum="0.0" x="112.819754547" x_displacement_sum="-287.180245453" y="1147.86337424" y_displacement_sum="47.8633742422" />
    <node avg_slowdown_ratio="0.0" id="node_04x12" junction="True" old_x="400.0" old_y="1200.0" type="priority" weight_num="4.0" weight_sum="0.0" x="146.757679181" x_displacement_sum="-253.242320819" y="1284.41410694" y_displacement_sum="84.4141069397" />
    <node avg_slowdown_ratio="0.0" id="node_04x13" junction="True" old_x="400.0" old_y="1300.0" type="priority" weight_num="4.0" weight_sum="0.0" x="195.602627698" x_displacement_sum="-204.397372302" y="1402.19868615" y_displacement_sum="102.198686151" />
    <node avg_slowdown_ratio="0.0" id="node_04x14" junction="True" old_x="400.0" old_y="1400.0" type="priority" weight_num="4.0" weight_sum="0.0" x="251.683711649" x_displacement_sum="-148.316288351" y="1498.87752557" y_displacement_sum="98.8775255675" />
    <node avg_slowdown_ratio="0.0" id="node_04x15" junction="True" old_x="400.0" old_y="1500.0" type="priority" weight_num="4.0" weight_sum="0.0" x="309.074159374" x_displacement_sum="-90.9258406264" y="1575.77153386" y_displacement_sum="75.7715338554" />
    <node avg_slowdown_ratio="0.0" id="node_04x16" junction="True" old_x="400.0" old_y="1600.0" type="priority" weight_num="4.0" weight_sum="0.0" x="364.069952305" x_displacement_sum="-35.9300476948" y="1635.93004769" y_displacement_sum="35.9300476948" />
    <node avg_slowdown_ratio="0.0" id="node_04x17" junction="True" old_x="400.0" old_y="1700.0" type="priority" weight_num="4.0" weight_sum="0.0" x="400.0" y="1700.0" />
    <node avg_slowdown_ratio="0.0" id="node_04x18" junction="True" old_x="400.0" old_y="1800.0" type="priority" weight_num="4.0" weight_sum="0.0" x="400.0" y="1800.0" />
    <node avg_slowdown_ratio="0.0" id="node_04x19" junction="True" old_x="400.0" old_y="1900.0" type="priority" weight_num="4.0" weight_sum="0.0" x="400.0" y="1900.0" />
    <node avg_slowdown_ratio="0.0" id="node_04x20" junction="True" old_x="400.0" old_y="2000.0" type="priority" weight_num="3.0" weight_sum="0.0" x="400.0" y="2000.0" />
    <node avg_slowdown_ratio="0.0" id="node_05x00" junction="True" old_x="500.0" old_y="0.0" type="priority" weight_num="3.0" weight_sum="0.0" x="500.0" y="0.0" />
    <node avg_slowdown_ratio="0.0" id="node_05x01" junction="True" old_x="500.0" old_y="100.0" type="priority" weight_num="4.0" weight_sum="0.0" x="500.0" y="100.0" />
    <node avg_slowdown_ratio="0.0" id="node_05x02" junction="True" old_x="500.0" old_y="200.0" type="priority" weight_num="4.0" weight_sum="0.0" x="500.0" y="200.0" />
    <node avg_slowdown_ratio="0.0" id="node_05x03" junction="True" old_x="500.0" old_y="300.0" type="priority" weight_num="4.0" weight_sum="0.0" x="477.260846837" x_displacement_sum="-22.7391531626" y="268.165185572" y_displacement_sum="-31.8348144276" />
    <node avg_slowdown_ratio="0.0" id="node_05x04" junction="True" old_x="500.0" old_y="400.0" type="priority" weight_num="4.0" weight_sum="0.0" x="424.228466145" x_displacement_sum="-75.7715338554" y="309.074159374" y_displacement_sum="-90.9258406264" />
    <node avg_slowdown_ratio="0.0" id="node_05x05" junction="True" old_x="500.0" old_y="500.0" type="priority" weight_num="4.0" weight_sum="0.0" x="364.029509031" x_displacement_sum="-135.970490969" y="364.029509031" y_displacement_sum="-135.970490969" />
    <node avg_slowdown_ratio="0.0" id="node_05x06" junction="True" old_x="500.0" old_y="600.0" type="priority" weight_num="4.0" weight_sum="0.0" x="297.752808989" x_displacement_sum="-202.247191011" y="438.202247191" y_displacement_sum="-161.797752809" />
    <node avg_slowdown_ratio="0.0" id="node_05x07" junction="True" old_x="500.0" old_y="700.0" type="priority" weight_num="4.0" weight_sum="0.0" x="228.871067242" x_displacement_sum="-271.128932758" y="537.322640345" y_displacement_sum="-162.677359655" />
    <node avg_slowdown_ratio="0.0" id="node_05x08" junction="True" old_x="500.0" old_y="800.0" type="priority" weight_num="4.0" weight_sum="0.0" x="164.996659987" x_displacement_sum="-335.003340013" y="665.998663995" y_displacement_sum="-134.001336005" />
    <node avg_slowdown_ratio="0.0" id="node_05x09" junction="True" old_x="500.0" old_y="900.0" type="priority" weight_num="4.0" weight_sum="0.0" x="118.165784832" x_displacement_sum="-381.834215168" y="823.633156966" y_displacement_sum="-76.3668430335" />
    <node avg_slowdown_ratio="0.0" id="node_05x10" junction="True" old_x="500.0" old_y="1000.0" type="priority" weight_num="4.0" weight_sum="0.0" x="100.71942446" x_displacement_sum="-399.28057554" y="1000.0" y_displacement_sum="0.0" />
    <node avg_slowdown_ratio="0.0" id="node_05x11" junction="True" old_x="500.0" old_y="1100.0" type="priority" weight_num="4.0" weight_sum="0.0" x="118.165784832" x_displacement_sum="-381.834215168" y="1176.36684303" y_displacement_sum="76.3668430335" />
    <node avg_slowdown_ratio="0.0" id="node_05x12" junction="True" old_x="500.0" old_y="1200.0" type="priority" weight_num="4.0" weight_sum="0.0" x="164.996659987" x_displacement_sum="-335.003340013" y="1334.001336" y_displacement_sum="134.001336005" />
    <node avg_slowdown_ratio="0.0" id="node_05x13" junction="True" old_x="500.0" old_y="1300.0" type="priority" weight_num="4.0" weight_sum="0.0" x="228.871067242" x_displacement_sum="-271.128932758" y="1462.67735965" y_displacement_sum="162.677359655" />
    <node avg_slowdown_ratio="0.0" id="node_05x14" junction="True" old_x="500.0" old_y="1400.0" type="priority" weight_num="4.0" weight_sum="0.0" x="297.752808989" x_displacement_sum="-202.247191011" y="1561.79775281" y_displacement_sum="161.797752809" />
    <node avg_slowdown_ratio="0.0" id="node_05x15" junction="True" old_x="500.0" old_y="1500.0" type="priority" weight_num="4.0" weight_sum="0.0" x="364.029509031" x_displacement_sum="-135.970490969" y="1635.97049097" y_displacement_sum="135.970490969" />
    <node avg_slowdown_ratio="0.0" id="node_05x16" junction="True" old_x="500.0" old_y="1600.0" type="priority" weight_num="4.0" weight_sum="0.0" x="424.228466145" x_displacement_sum="-75.7715338554" y="1690.92584063" y_displacement_sum="90.9258406264" />
    <node avg_slowdown_ratio="0.0" id="node_05x17" junction="True" old_x="500.0" old_y="1700.0" type="priority" weight_num="4.0" weight_sum="0.0" x="477.260846837" x_displacement_sum="-22.7391531626" y="1731.83481443" y_displacement_sum="31.8348144276" />
    <node avg_slowdown_ratio="0.0" id="node_05x18" junction="True" old_x="500.0" old_y="1800.0" type="priority" weight_num="4.0" weight_sum="0.0" x="500.0" y="1800.0" />
    <node avg_slowdown_ratio="0.0" id="node_05x19" junction="True" old_x="500.0" old_y="1900.0" type="priority" weight_num="4.0" weight_sum="0.0" x="500.0" y="1900.0" />
    <node avg_slowdown_ratio="0.0" id="node_05x20" junction="True" old_x="500.0" old_y="2000.0" type="priority" weight_num="3.0" weight_sum="0.0" x="500.0" y="2000.0" />
    <node avg_slowdown_ratio="0.0" id="node_06x00" junction="True" old_x="600.0" old_y="0.0" type="priority" weight_num="3.0" weight_sum="0.0" x="600.0" y="0.0" />
    <node avg_slowdown_ratio="0.0" id="node_06x01" junction="True" old_x="600.0" old_y="100.0" type="priority" weight_num="4.0" weight_sum="0.0" x="600.0" y="100.0" />
    <node avg_slowdown_ratio="0.0" id="node_06x02" junction="True" old_x="600.0" old_y="200.0" type="priority" weight_num="4.0" weight_sum="0.0" x="597.787833082" x_displacement_sum="-2.21216691805" y="195.575666164" y_displacement_sum="-4.4243338361" />
    <node avg_slowdown_ratio="0.0" id="node_06x03" junction="True" old_x="600.0" old_y="300.0" type="priority" weight_num="4.0" weight_sum="0.0" x="553.820412716" x_displacement_sum="-46.1795872839" y="219.185722253" y_displacement_sum="-80.8142777468" />
    <node avg_slowdown_ratio="0.0" id="node_06x04" junction="True" old_x="600.0" old_y="400.0" type="priority" weight_num="4.0" weight_sum="0.0" x="501.122474432" x_displacement_sum="-98.8775255675" y="251.683711649" y_displacement_sum="-148.316288351" />
    <node avg_slowdown_ratio="0.0" id="node_06x05" junction="True" old_x="600.0" old_y="500.0" type="priority" weight_num="4.0" weight_sum="0.0" x="438.202247191" x_displacement_sum="-161.797752809" y="297.752808989" y_displacement_sum="-202.247191011" />
    <node avg_slowdown_ratio="0.0" id="node_06x06" junction="True" old_x="600.0" old_y="600.0" type="priority" weight_num="4.0" weight_sum="0.0" x="364.069952305" x_displacement_sum="-235.930047695" y="364.069952305" y_displacement_sum="-235.930047695" />
    <node avg_slowdown_ratio="0.0" id="node_06x07" junction="True" old_x="600.0" old_y="700.0" type="priority" weight_num="4.0" weight_sum="0.0" x="280.575539568" x_displacement_sum="-319.424460432" y="460.431654676" y_displacement_sum="-239.568345324" />
    <node avg_slowdown_ratio="0.0" id="node_06x08" junction="True" old_x="600.0" old_y="800.0" type="priority" weight_num="4.0" weight_sum="0.0" x="241.825859642" x_displacement_sum="-358.174140358" y="620.912929821" y_displacement_sum="-179.087070179" />
    <node avg_slowdown_ratio="0.0" id="node_06x09" junction="True" old_x="600.0" old_y="900.0" type="priority" weight_num="4.0" weight_sum="0.0" x="236.379498364" x_displacement_sum="-363.620501636" y="809.094874591" y_displacement_sum="-90.9051254089" />
    <node avg_slowdown_ratio="0.0" id="node_06x10" junction="True" old_x="600.0" old_y="1000.0" type="priority" weight_num="4.0" weight_sum="0.0" x="234.532374101" x_displacement_sum="-365.467625899" y="1000.0" y_displacement_sum="0.0" />
    <node avg_slowdown_ratio="0.0" id="node_06x11" junction="True" old_x="600.0" old_y="1100.0" type="priority" weight_num="4.0" weight_sum="0.0" x="236.379498364" x_displacement_sum="-363.620501636" y="1190.90512541" y_displacement_sum="90.9051254089" />
    <node avg_slowdown_ratio="0.0" id="node_06x12" junction="True" old_x="600.0" old_y="1200.0" type="priority" weight_num="4.0" weight_sum="0.0" x="241.825859642" x_displacement_sum="-358.174140358" y="1379.08707018" y_displacement_sum="179.087070179" />
    <node avg_slowdown_ratio="0.0" id="node_06x13" junction="True" old_x="600.0" old_y="1300.0" type="priority" weight_num="4.0" weight_sum="0.0" x="280.575539568" x_displacement_sum="-319.424460432" y="1539.56834532" y_displacement_sum="239.568345324" />
    <node avg_slowdown_ratio="0.0" id="node_06x14" junction="True" old_x="600.0" old_y="1400.0" type="priority" weight_num="4.0" weight_sum="0.0" x="364.069952305" x_displacement_sum="-235.930047695" y="1635.93004769" y_displacement_sum="235.930047695" />
    <node avg_slowdown_ratio="0.0" id="node_06x15" junction="True" old_x="600.0" old_y="1500.0" type="priority" weight_num="4.0" weight_sum="0.0" x="438.202247191" x_displacement_sum="-161.797752809" y="1702.24719101" y_displacement_sum="202.247191011" />
    <node avg_slowdown_ratio="0.0" id="node_06x16" junction="True" old_x="600.0" old_y="1600.0" type="priority" weight_num="4.0" weight_sum="0.0" x="501.122474432" x_displacement_sum="-98.8775255675" y="1748.31628835" y_displacement_sum="148.316288351" />