<?xml version='1.0' encoding='UTF-8'?>
<nodes xmlns:xsi="http://www.w3.org/2001/XMLSchema-instance" version="0.27" xsi:noNamespaceSchemaLocation="http://sumo.dlr.de/xsd/edges_file.xsd"><node avg_slowdown_ratio="0.999280057598" id="node_10x10" junction="True" old_x="1000.0" old_y="1000.0" type="priority" weight_num="4.0" weight_sum="3.99712023039" x="1000.0" y="1000.0" />
    <node avg_slowdown_ratio="0.0" id="node_00x00" junction="True" old_x="0.0" old_y="0.0" type="priority" weight_num="2.0" weight_sum="0.0" x="0.0" y="0.0" />
    <node avg_slowdown_ratio="0.0" id="node_00x01" junction="True" old_x="0.0" old_y="100.0" type="priority" weight_num="3.0" weight_sum="0.0" x="0.0" y="100.0" />
    <node avg_slowdown_ratio="0.0" id="node_00x02" junction="True" old_x="0.0" old_y="200.0" type="priority" weight_num="3.0" weight_sum="0.0" x="0.0" y="200.0" />
    <node avg_slowdown_ratio="0.0" id="node_00x03" junction="True" old_x="0.0" old_y="300.0" type="priority" weight_num="3.0" weight_sum="0.0" x="0.0" y="300.0" />
    <node avg_slowdown_ratio="0.0" id="node_00x04" junction="True" old_x="0.0" old_y="400.0" type="priority" weight_num="3.0" weight_sum="0.0" x="0.0" y="400.0" />
    <node avg_slowdown_ratio="0.0" id="node_00x05" junction="True" old_x="0.0" old_y="500.0" type="priority" weight_num="3.0" weight_sum="0.0" x="0.0" y="500.0" />
    <node avg_slowdown_ratio="0.0" id="node_00x06" junction="True" old_x="0.0" old_y="600.0" type="priority" weight_num="3.0" weight_sum="0.0" x="0.0" y="600.0" />
    <node avg_slowdown_ratio="0.0" id="node_00x07" junction="True" old_x="0.0" old_y="700.0" type="priority" weight_num="3.0" weight_sum="0.0" x="0.0" y="700.0" />
    <node avg_slowdown_ratio="0.0" id="node_00x08" junction="True" old_x="0.0" old_y="800.0" type="priority" weight_num="3.0" weight_sum="0.0" x="0.0" y="800.0" />
    <node avg_slowdown_ratio="0.0" id="node_00x09" junction="True" old_x="0.0" old_y="900.0" type="priority" weight_num="3.0" weight_sum="0.0" x="0.0" y="900.0" />
    <node avg_slowdown_ratio="0.0" id="node_00x10" junction="True" old_x="0.0" old_y="1000.0" type="priority" weight_num="3.0" weight_sum="0.0" x="0.0" y="1000.0" />
    <node avg_slowdown_ratio="0.0" id="node_00x11" junction="True" old_x="0.0" old_y="1100.0" type="priority" weight_num="3.0" weight_sum="0.0" x="0.0" y="1100.0" />
    <node avg_slowdown_ratio="0.0" id="node_00x12" junction="True" old_x="0.0" old_y="1200.0" type="priority" weight_num="3.0" weight_sum="0.0" x="0.0" y="1200.0" />
    <node avg_slowdown_ratio="0.0" id="node_00x13" junction="True" old_x="0.0" old_y="1300.0" type="priority" weight_num="3.0" weight_sum="0.0" x="0.0" y="1300.0" />
    <node avg_slowdown_ratio="0.0" id="node_00x14" junction="True" old_x="0.0" old_y="1400.0" type="priority" weight_num="3.0" weight_sum="0.0" x="0.0" y="1400.0" />
    <node avg_slowdown_ratio="0.0" id="node_00x15" junction="True" old_x="0.0" old_y="1500.0" type="priority" weight_num="3.0" weight_sum="0.0" x="0.0" y="1500.0" />
    <node avg_slowdown_ratio="0.0" id="node_00x16" junction="True" old_x="0.0" old_y="1600.0" type="priority" weight_num="3.0" weight_sum="0.0" x="0.0" y="1600.0" />
    <node avg_slowdown_ratio="0.0" id="node_00x17" junction="True" old_x="0.0" old_y="1700.0" type="priority" weight_num="3.0" weight_sum="0.0" x="0.0" y="1700.0" />
    <node avg_slowdown_ratio="0.0" id="node_00x18" junction="True" old_x="0.0" old_y="1800.0" type="priority" weight_num="3.0" weight_sum="0.0" x="0.0" y="1800.0" />
    <node avg_slowdown_ratio="0.0" id="node_00x19" junction="True" old_x="0.0" old_y="1900.0" type="priority" weight_num="3.0" weight_sum="0.0" x="0.0" y="1900.0" />
    <node avg_slowdown_ratio="0.0" id="node_00x20" junction="True" old_x="0.0" old_y="2000.0" type="priority" weight_num="2.0" weight_sum="0.0" x="0.0" y="2000.0" />
    <node avg_slowdown_ratio="0.0" id="node_01x00" junction="True" old_x="100.0" old_y="0.0" type="priority" weight_num="3.0" weight_sum="0.0" x="100.0" y="0.0" />
    <node avg_slowdown_ratio="0.0" id="node_01x01" junction="True" old_x="100.0" old_y="100.0" type="priority" weight_num="4.0" weight_sum="0.0" x="100.0" y="100.0" />
    <node avg_slowdown_ratio="0.0" id="node_01x02" junction="True" old_x="100.0" old_y="200.0" type="priority" weight_num="4.0" weight_sum="0.0" x="100.0" y="200.0" />
    <node avg_slowdown_ratio="0.0" id="node_01x03" junction="True" old_x="100.0" old_y="300.0" type="priority" weight_num="4.0" weight_sum="0.0" x="100.0" y="300.0" />
    <node avg_slowdown_ratio="0.0" id="node_01x04" junction="True" old_x="100.0" old_y="400.0" type="priority" weight_num="4.0" weight_sum="0.0" x="100.0" y="400.0" />
    <node avg_slowdown_ratio="0.0" id="node_01x05" junction="True" old_x="100.0" old_y="500.0" type="priority" weight_num="4.0" weight_sum="0.0" x="100.0" y="500.0" />
    <node avg_slowdown_ratio="0.0" id="node_01x06" junction="True" old_x="100.0" old_y="600.0" type="priority" weight_num="4.0" weight_sum="0.0" x="86.8506493506" x_displacement_sum="-13.1493506494" y="594.155844156" y_displacement_sum="-5.84415584416" />
    <node avg_slowdown_ratio="0.0" id="node_01x07" junction="True" old_x="100.0" old_y="700.0" type="priority" weight_num="4.0" weight_sum="0.0" x="52.0328628608" x_displacement_sum="-47.9671371392" y="684.010954287" y_displacement_sum="-15.9890457131" />
    <node avg_slowdown_ratio="0.0" id="node_01x08" junction="True" old_x="100.0" old_y="800.0" type="priority" weight_num="4.0" weight_sum="0.0" x="24.4959895946" x_displacement_sum="-75.5040104054" y="783.221331021" y_displacement_sum="-16.778668979" />
    <node avg_slowdown_ratio="0.0" id="node_01x09" junction="True" old_x="100.0" old_y="900.0" type="priority" weight_num="4.0" weight_sum="0.0" x="6.8417567866" x_displacement_sum="-93.1582432134" y="889.649084087" y_displacement_sum="-10.3509159126" />
    <node avg_slowdown_ratio="0.0" id="node_01x10" junction="True" old_x="100.0" old_y="1000.0" type="priority" weight_num="4.0" weight_sum="0.0" x="0.6662225183" x_displacement_sum="-99.3337774817" y="1000.0" y_displacement_sum="0.0" />
    <node avg_slowdown_ratio="0.0" id="node_01x11" junction="True" old_x="100.0" old_y="1100.0" type="priority" weight_num="4.0" weight_sum="0.0" x="6.8417567866" x_displacement_sum="-93.1582432134" y="1110.35091591" y_displacement_sum="10.3509159126" />
    <node avg_slowdown_ratio="0.0" id="node_01x12" junction="True" old_x="100.0" old_y="1200.0" type="priority" weight_num="4.0" weight_sum="0.0" x="24.4959895946" x_displacement_sum="-75.5040104054" y="1216.77866898" y_displacement_sum="16.778668979" />
    <node avg_slowdown_ratio="0.0" id="node_01x13" junction="True" old_x="100.0" old_y="1300.0" type="priority" weight_num="4.0" weight_sum="0.0" x="52.0328628608" x_displacement_sum="-47.9671371392" y="1315.98904571" y_displacement_sum="15.9890457131" />
    <node avg_slowdown_ratio="0.0" id="node_01x14" junction="True" old_x="100.0" old_y="1400.0" type="priority" weight_num="4.0" weight_sum="0.0" x="86.8506493506" x_displacement_sum="-13.1493506494" y="1405.84415584" y_displacement_sum="5.84415584416" />
    <node avg_slowdown_ratio="0.0" id="node_01x15" junction="True" old_x="100.0" old_y="1500.0" type="priority" weight_num="4.0" weight_sum="0.0" x="100.0" y="1500.0" />
    <node avg_slowdown_ratio="0.0" id="node_01x16" junction="True" old_x="100.0" old_y="1600.0" type="priority" weight_num="4.0" weight_sum="0.0" x="100.0" y="1600.0" />
    <node avg_slowdown_ratio="0.0" id="node_01x17" junction="True" old_x="100.0" old_y="1700.0" type="priority" weight_num="4.0" weight_sum="0.0" x="100.0" y="1700.0" />
    <node avg_slowdown_ratio="0.0" id="node_01x18" junction="True" old_x="100.0" old_y="1800.0" type="priority" weight_num="4.0" weight_sum="0.0" x="100.0" y="1800.0" />
    <node avg_slowdown_ratio="0.0" id="node_01x19" junction="True" old_x="100.0" old_y="1900.0" type="priority" weight_num="4.0" weight_sum="0.0" x="100.0" y="1900.0" />
    <node avg_slowdown_ratio="0.0" id="node_01x20" junction="True" old_x="100.0" old_y="2000.0" type="priority" weight_num="3.0" weight_sum="0.0" x="100.0" y="2000.0" />
    <node avg_slowdown_ratio="0.0" id="node_02x00" junction="True" old_x="200.0" old_y="0.0" type="priority" weight_num="3.0" weight_sum="0.0" x="200.0" y="0.0" />
    <node avg_slowdown_ratio="0.0" id="node_02x01" junction="True" old_x="200.0" old_y="100.0" type="priority" weight_num="4.0" weight_sum="0.0" x="200.0" y="100.0" />
    <node avg_slowdown_ratio="0.0" id="node_02x02" junction="True" old_x="200.0" old_y="200.0" type="priority" weight_num="4.0" weight_sum="0.0" x="200.0" y="200.0" />
    <node avg_slowdown_ratio="0.0" id="node_02x03" junction="True" old_x="200.0" old_y="300.0" type="priority" weight_num="4.0" weight_sum="0.0" x="200.0" y="300.0" />
    <node avg_slowdown_ratio="0.0" id="node_02x04" junction="True" old_x="200.0" old_y="400.0" type="priority" weight_num="4.0" weight_sum="0.0" x="200.0" y="400.0" />
    <node avg_slowdown_ratio="0.0" id="node_02x05" junction="True" old_x="200.0" old_y="500.0" type="priority" weight_num="4.0" weight_sum="0.0" x="152.632136426" x_displacement_sum="-47.3678635738" y="470.395085266" y_displacement_sum="-29.6049147336" />
    <node avg_slowdown_ratio="0.0" id="node_02x06" junction="True" old_x="200.0" old_y="600.0" type="priority" weight_num="4.0" weight_sum="0.0" x="106.245112278" x_displacement_sum="-93.754887722" y="553.122556139" y_displacement_sum="-46.877443861" />
    <node avg_slowdown_ratio="0.0" id="node_02x07" junction="True" old_x="200.0" old_y="700.0" type="priority" weight_num="4.0" weight_sum="0.0" x="64.32748538" x_displacement_sum="-135.67251462" y="649.122807018" y_displacement_sum="-50.8771929825" />
    <node avg_slowdown_ratio="0.0" id="node_02x08" junction="True" old_x="200.0" old_y="800.0" type="priority" weight_num="4.0" weight_sum="0.0" x="30.538051381" x_displacement_sum="-169.461948619" y="757.634512845" y_displacement_sum="-42.3654871546" />
    <node avg_slowdown_ratio="0.0" id="node_02x09" junction="True" old_x="200.0" old_y="900.0" type="priority" weight_num="4.0" weight_sum="0.0" x="8.428358949" x_displacement_sum="-191.571641051" y="876.053544869" y_displacement_sum="-23.9464551314" />
    <node avg_slowdown_ratio="0.0" id="node_02x10" junction="True" old_x="200.0" old_y="1000.0" type="priority" weight_num="4.0" weight_sum="0.0" x="0.749437922" x_displacement_sum="-199.250562078" y="1000.0" y_displacement_sum="0.0" />
    <node avg_slowdown_ratio="0.0" id="node_02x11" junction="True" old_x="200.0" old_y="1100.0" type="priority" weight_num="4.0" weight_sum="0.0" x="8.428358949" x_displacement_sum="-191.571641051" y="1123.94645513" y_displacement_sum="23.9464551314" />
    <node avg_slowdown_ratio="0.0" id="node_02x12" junction="True" old_x="200.0" old_y="1200.0" type="priority" weight_num="4.0" weight_sum="0.0" x="30.538051381" x_displacement_sum="-169.461948619" y="1242.36548715" y_displacement_sum="42.3654871546" />
    <node avg_slowdown_ratio="0.0" id="node_02x13" junction="True" old_x="200.0" old_y="1300.0" type="priority" weight_num="4.0" weight_sum="0.0" x="64.32748538" x_displacement_sum="-135.67251462" y="1350.87719298" y_displacement_sum="50.8771929825" />
    <node avg_slowdown_ratio="0.0" id="node_02x14" junction="True" old_x="200.0" old_y="1400.0" type="priority" weight_num="4.0" weight_sum="0.0" x="106.245112278" x_displacement_sum="-93.754887722" y="1446.87744386" y_displacement_sum="46.877443861" />
    <node avg_slowdown_ratio="0.0" id="node_02x15" junction="True" old_x="200.0" old_y="1500.0" type="priority" weight_num="4.0" weight_sum="0.0" x="152.632136426" x_displacement_sum="-47.3678635738" y="1529.60491473" y_displacement_sum="29.6049147336" />
    <node avg_slowdown_ratio="0.0" id="node_02x16" junction="True" old_x="200.0" old_y="1600.0" type="priority" weight_num="4.0" weight_sum="0.0" x="200.0" y="1600.0" />
    <node avg_slowdown_ratio="0.0" id="node_02x17" junction="True" old_x="200.0" old_y="1700.0" type="priority" weight_num="4.0" weight_sum="0.0" x="200.0" y="1700.0" />
    <node avg_slowdown_ratio="0.0" id="node_02x18" junction="True" old_x="200.0" old_y="1800.0" type="priority" weight_num="4.0" weight_sum="0.0" x="200.0" y="1800.0" />
    <node avg_slowdown_ratio="0.0" id="node_02x19" junction="True" old_x="200.0" old_y="1900.0" type="priority" weight_num="4.0" weight_sum="0.0" x="200.0" y="1900.0" />
    <node avg_slowdown_ratio="0.0" id="node_02x20" junction="True" old_x="200.0" old_y="2000.0" type="priority" weight_num="3.0" weight_sum="0.0" x="200.0" y="2000.0" />
    <node avg_slowdown_ratio="0.0" id="node_03x00" junction="True" old_x="300.0" old_y="0.0" type="priority" weight_num="3.0" weight_sum="0.0" x="300.0" y="0.0" />
    <node avg_slowdown_ratio="0.0" id="node_03x01" junction="True" old_x="300.0" old_y="100.0" type="priority" weight_num="4.0" weight_sum="0.0" x="300.0" y="100.0" />
    <node avg_slowdown_ratio="0.0" id="node_03x02" junction="True" old_x="300.0" old_y="200.0" type="priority" weight_num="4.0" weight_sum="0.0" x="300.0" y="200.0" />
    <node avg_slowdown_ratio="0.0" id="node_03x03" junction="True" old_x="300.0" old_y="300.0" type="priority" weight_num="4.0" weight_sum="0.0" x="293.428888665" x_displacement_sum="-6.57111133542" y="293.428888665" y_displacement_sum="-6.57111133542" />
    <node avg_slowdown_ratio="0.0" id="node_03x04" junction="True" old_x="300.0" old_y="400.0" type="priority" weight_num="4.0" weight_sum="0.0" x="241.274658574" x_displacement_sum="-58.7253414264" y="349.663993063" y_displacement_sum="-50.3360069369" />
    <node avg_slowdown_ratio="0.0" id="node_03x05" junction="True" old_x="300.0" old_y="500.0" type="priority" weight_num="4.0" weight_sum="0.0" x="186.897432919" x_displacement_sum="-113.102567081" y="419.212452085" y_displacement_sum="-80.787547915" />
    <node avg_slowdown_ratio="0.0" id="node_03x06" junction="True" old_x="300.0" old_y="600.0" type="priority" weight_num="4.0" weight_sum="0.0" x="132.37481408" x_displacement_sum="-167.62518592" y="504.214179474" y_displacement_sum="-95.7858205255" />
    <node avg_slowdown_ratio="0.0" id="node_03x07" junction="True" old_x="300.0" old_y="700.0" type="priority" weight_num="4.0" weight_sum="0.0" x="81.485369374" x_displacement_sum="-218.514630626" y="606.350872589" y_displacement_sum="-93.6491274111" />
    <node avg_slowdown_ratio="0.0" id="node_03x08" junction="True" old_x="300.0" old_y="800.0" type="priority" weight_num="4.0" weight_sum="0.0" x="39.121482498" x_displacement_sum="-260.878517502" y="725.463280714" y_displacement_sum="-74.5367192862" />
    <node avg_slowdown_ratio="0.0" id="node_03x09" junction="True" old_x="300.0" old_y="900.0" type="priority" weight_num="4.0" weight_sum="0.0" x="10.740531374" x_displacement_sum="-289.259468626" y="858.677218768" y_displacement_sum="-41.3227812323" />
    <node avg_slowdown_ratio="0.0" id="node_03x10" junction="True" old_x="300.0" old_y="1000.0" type="priority" weight_num="4.0" weight_sum="0.0" x="0.713775874" x_displacement_sum="-299.286224126" y="1000.0" y_displacement_sum="0.0" />
    <node avg_slowdown_ratio="0.0" id="node_03x11" junction="True" old_x="300.0" old_y="1100.0" type="priority" weight_num="4.0" weight_sum="0.0" x="10.740531374" x_displacement_sum="-289.259468626" y="1141.32278123" y_displacement_sum="41.3227812323" />
    <node avg_slowdown_ratio="0.0" id="node_03x12" junction="True" old_x="300.0" old_y="1200.0" type="priority" weight_num="4.0" weight_sum="0.0" x="39.121482498" x_displacement_sum="-260.878517502" y="1274.53671929" y_displacement_sum="74.5367192862" />
    <node avg_slowdown_ratio="0.0" id="node_03x13" junction="True" old_x="300.0" old_y="1300.0" type="priority" weight_num="4.0" weight_sum="0.0" x="81.485369374" x_displacement_sum="-218.514630626" y="1393.64912741" y_displacement_sum="93.6491274111" />
    <node avg_slowdown_ratio="0.0" id="node_03x14" junction="True" old_x="300.0" old_y="1400.0" type="priority" weight_num="4.0" weight_sum="0.0" x="132.37481408" x_displacement_sum="-167.62518592" y="1495.78582053" y_displacement_sum="95.7858205255" />
    <node avg_slowdown_ratio="0.0" id="node_03x15" junction="True" old_x="300.0" old_y="1500.0" type="priority" weight_num="4.0" weight_sum="0.0" x="186.897432919" x_displacement_sum="-113.102567081" y="1580.78754792" y_displacement_sum="80.787547915" />
    <node avg_slowdown_ratio="0.0" id="node_03x16" junction="True" old_x="300.0" old_y="1600.0" type="priority" weight_num="4.0" weight_sum="0.0" x="241.274658574" x_displacement_sum="-58.7253414264" y="1650.33600694" y_displacement_sum="50.3360069369" />
    <node avg_slowdown_ratio="0.0" id="node_03x17" junction="True" old_x="300.0" old_y="1700.0" type="priority" weight_num="4.0" weight_sum="0.0" x="293.428888665" x_displacement_sum="-6.57111133542" y="1706.57111134" y_displacement_sum="6.57111133542" />
    <node avg_slowdown_ratio="0.0" id="node_03x18" junction="True" old_x="300.0" old_y="1800.0" type="priority" weight_num="4.0" weight_sum="0.0" x="300.0" y="1800.0" />
    <node avg_slowdown_ratio="0.0" id="node_03x19" junction="True" old_x="300.0" old_y="1900.0" type="priority" weight_num="4.0" weight_sum="0.0" x="300.0" y="1900.0" />
    <node avg_slowdown_ratio="0.0" id="node_03x20" junction="True" old_x="300.0" old_y="2000.0" type="priority" weight_num="3.0" weight_sum="0.0" x="300.0" y="2000.0" />
    <node avg_slowdown_ratio="0.0" id="node_04x00" junction="True" old_x="400.0" old_y="0.0" type="priority" weight_num="3.0" weight_sum="0.0" x="400.0" y="0.0" />
    <node avg_slowdown_ratio="0.0" id="node_04x01" junction="True" old_x="400.0" old_y="100.0" type="priority" weight_num="4.0" weight_sum="0.0" x="400.0" y="100.0" />
    <node avg_slowdown_ratio="0.0" id="node_04x02" junction="True" old_x="400.0" old_y="200.0" type="priority" weight_num="4.0" weight_sum="0.0" x="400.0" y="200.0" />
    <node avg_slowdown_ratio="0.0" id="node_04x03" junction="True" old_x="400.0" old_y="300.0" type="priority" weight_num="4.0" weight_sum="0.0" x="349.663993063" x_displacement_sum="-50.3360069369" y="241.274658574" y_displacement_sum="-58.7253414264" />
    <node avg_slowdown_ratio="0.0" id="node_04x04" junction="True" old_x="400.0" old_y="400.0" type="priority" weight_num="4.0" weight_sum="0.0" x="293.369450006" x_displacement_sum="-106.630549994" y="293.369450006" y_displacement_sum="-106.630549994" />
    <node avg_slowdown_ratio="0.0" id="node_04x05" junction="True" old_x="400.0" old_y="500.0" type="priority" weight_num="4.0" weight_sum="0.0" x="232.343909928" x_displacement_sum="-167.656090072" y="360.286591607" y_displacement_sum="-139.713408393" />
    <node avg_slowdown_ratio="0.0" id="node_04x06" junction="True" old_x="400.0" old_y="600.0" type="priority" weight_num="4.0" weight_sum="0.0" x="168.514412417" x_displacement_sum="-231.485587583" y="445.676274945" y_displacement_sum="-154.323725055" />
    <node avg_slowdown_ratio="0.0" id="node_04x07" junction="True" old_x="400.0" old_y="700.0" type="priority" weight_num="4.0" weight_sum="0.0" x="106.211827797" x_displacement_sum="-293.788172203" y="553.105913898" y_displacement_sum="-146.894086102" />
    <node avg_slowdown_ratio="0.0" id="node_04x08" junction="True" old_x="400.0" old_y="800.0" type="priority" weight_num="4.0" weight_sum="0.0" x="51.982935693" x_displacement_sum="-348.017064307" y="683.994311898" y_displacement_sum="-116.005688102" />
    <node avg_slowdown_ratio="0.0" id="node_04x09" junction="True" old_x="400.0" old_y="900.0" type="priority" weight_num="4.0" weight_sum="0.0" x="14.292755052" x_displacement_sum="-385.707244948" y="835.715459175" y_displacement_sum="-64.2845408247" />
    <node avg_slowdown_ratio="0.0" id="node_04x10" junction="True" old_x="400.0" old_y="1000.0" type="priority" weight_num="4.0" weight_sum="0.0" x="0.666222518" x_displacement_sum="-399.333777482" y="1000.0" y_displacement_sum="0.0" />
    <node avg_slowdown_ratio="0.0" id="node_04x11" junction="True" old_x="400.0" old_y="1100.0" type="priority" weight_num="4.0" weight_sum="0.0" x="14.292755052" x_displacement_sum="-385.707244948" y="1164.28454082" y_displacement_sum="64.2845408247" />
    <node avg_slowdown_ratio="0.0" id="node_04x12" junction="True" old_x="400.0" old_y="1200.0" type="priority" weight_num="4.0" weight_sum="0.0" x="51.982935693" x_displacement_sum="-348.017064307" y="1316.0056881" y_displacement_sum="116.005688102" />
    <node avg_slowdown_ratio="0.0" id="node_04x13" junction="True" old_x="400.0" old_y="1300.0" type="priority" weight_num="4.0" weight_sum="0.0" x="106.211827797" x_displacement_sum="-293.788172203" y="1446.8940861" y_displacement_sum="146.894086102" />
    <node avg_slowdown_ratio="0.0" id="node_04x14" junction="True" old_x="400.0" old_y="1400.0" type="priority" weight_num="4.0" weight_sum="0.0" x="168.514412417" x_displacement_sum="-231.485587583" y="1554.32372506" y_displacement_sum="154.323725055" />
    <node avg_slowdown_ratio="0.0" id="node_04x15" junction="True" old_x="400.0" old_y="1500.0" type="priority" weight_num="4.0" weight_sum="0.0" x="232.343909928" x_displacement_sum="-167.656090072" y="1639.71340839" y_displacement_sum="139.713408393" />
    <node avg_slowdown_ratio="0.0" id="node_04x16" junction="True" old_x="400.0" old_y="1600.0" type="priority" weight_num="4.0" weight_sum="0.0" x="293.369450006" x_displacement_sum="-106.630549994" y="1706.63054999" y_displacement_sum="106.630549994" />
    <node avg_slowdown_ratio="0.0" id="node_04x17" junction="True" old_x="400.0" old_y="1700.0" type="priority" weight_num="4.0" weight_sum="0.0" x="349.663993063" x_displacement_sum="-50.3360069369" y="1758.72534143" y_displacement_sum="58.7253414264" />
    <node avg_slowdown_ratio="0.0" id="node_04x18" junction="True" old_x="400.0" old_y="1800.0" type="priority" weight_num="4.0" weight_sum="0.0" x="400.0" y="1800.0" />
    <node avg_slowdown_ratio="0.0" id="node_04x19" junction="True" old_x="400.0" old_y="1900.0" type="priority" weight_num="4.0" weight_sum="0.0" x="400.0" y="1900.0" />
    <node avg_slowdown_ratio="0.0" id="node_04x20" junction="True" old_x="400.0" old_y="2000.0" type="priority" weight_num="3.0" weight_sum="0.0" x="400.0" y="2000.0" />
    <node avg_slowdown_ratio="0.0" id="node_05x00" junction="True" old_x="500.0" old_y="0.0" type="priority" weight_num="3.0" weight_sum="0.0" x="500.0" y="0.0" />
    <node avg_slowdown_ratio="0.0" id="node_05x01" junction="True" old_x="500.0" old_y="100.0" type="priority" weight_num="4.0" weight_sum="0.0" x="500.0" y="100.0" />
    <node avg_slowdown_ratio="0.0" id="node_05x02" junction="True" old_x="500.0" old_y="200.0" type="priority" weight_num="4.0" weight_sum="0.0" x="470.395085266" x_displacement_sum="-29.6049147336" y="152.632136426" y_displacement_sum="-47.3678635738" />
    <node avg_slowdown_ratio="0.0" id="node_05x03" junction="True" old_x="500.0" old_y="300.0" type="priority" weight_num="4.0" weight_sum="0.0" x="419.212452085" x_displacement_sum="-80.787547915" y="186.897432919" y_displacement_sum="-113.102567081" />
    <node avg_slowdown_ratio="0.0" id="node_05x04" junction="True" old_x="500.0" old_y="400.0" type="priority" weight_num="4.0" weight_sum="0.0" x="360.286591607" x_displacement_sum="-139.713408393" y="232.343909928" y_displacement_sum="-167.656090072" />
    <node avg_slowdown_ratio="0.0" id="node_05x05" junction="True" old_x="500.0" old_y="500.0" type="priority" weight_num="4.0" weight_sum="0.0" x="293.386093838" x_displacement_sum="-206.613906162" y="293.386093838" y_displacement_sum="-206.613906162" />
    <node avg_slowdown_ratio="0.0" id="node_05x06" junction="True" old_x="500.0" old_y="600.0" type="priority" weight_num="4.0" weight_sum="0.0" x="219.725343321" x_displacement_sum="-280.274656679" y="375.780274657" y_displacement_sum="-224.219725343" />
    <node avg_slowdown_ratio="0.0" id="node_05x07" junction="True" old_x="500.0" old_y="700.0" type="priority" weight_num="4.0" weight_sum="0.0" x="143.101970865" x_displacement_sum="-356.898029135" y="485.861182519" y_displacement_sum="-214.138817481" />
    <node avg_slowdown_ratio="0.0" id="node_05x08" junction="True" old_x="500.0" old_y="800.0" type="priority" weight_num="4.0" weight_sum="0.0" x="72.184078679" x_displacement_sum="-427.815921321" y="628.873631472" y_displacement_sum="-171.126368528" />
    <node avg_slowdown_ratio="0.0" id="node_05x09" junction="True" old_x="500.0" old_y="900.0" type="priority" weight_num="4.0" weight_sum="0.0" x="54.67372134" x_displacement_sum="-445.32627866" y="810.934744268" y_displacement_sum="-89.0652557319" />
    <node avg_slowdown_ratio="0.0" id="node_05x10" junction="True" old_x="500.0" old_y="1000.0" type="priority" weight_num="4.0" weight_sum="0.0" x="52.857713829" x_displacement_sum="-447.142286171" y="1000.0" y_displacement_sum="0.0" />
    <node avg_slowdown_ratio="0.0" id="node_05x11" junction="True" old_x="500.0" old_y="1100.0" type="priority" weight_num="4.0" weight_sum="0.0" x="54.67372134" x_displacement_sum="-445.32627866" y="1189.06525573" y_displacement_sum="89.0652557319" />
    <node avg_slowdown_ratio="0.0" id="node_05x12" junction="True" old_x="500.0" old_y="1200.0" type="priority" weight_num="4.0" weight_sum="0.0" x="72.184078679" x_displacement_sum="-427.815921321" y="1371.12636853" y_displacement_sum="171.126368528" />
    <node avg_slowdown_ratio="0.0" id="node_05x13" junction="True" old_x="500.0" old_y="1300.0" type="priority" weight_num="4.0" weight_sum="0.0" x="143.101970865" x_displacement_sum="-356.898029135" y="1514.13881748" y_displacement_sum="214.138817481" />
    <node avg_slowdown_ratio="0.0" id="node_05x14" junction="True" old_x="500.0" old_y="1400.0" type="priority" weight_num="4.0" weight_sum="0.0" x="219.725343321" x_displacement_sum="-280.274656679" y="1624.21972534" y_displacement_sum="224.219725343" />
    <node avg_slowdown_ratio="0.0" id="node_05x15" junction="True" old_x="500.0" old_y="1500.0" type="priority" weight_num="4.0" weight_sum="0.0" x="293.386093838" x_displacement_sum="-206.613906162" y="1706.61390616" y_displacement_sum="206.613906162" />
    <node avg_slowdown_ratio="0.0" id="node_05x16" junction="True" old_x="500.0" old_y="1600.0" type="priority" weight_num="4.0" weight_sum="0.0" x="360.286591607" x_displacement_sum="-139.713408393" y="1767.65609007" y_displacement_sum="167.656090072" />
    <node avg_slowdown_ratio="0.0" id="node_05x17" junction="True" old_x="500.0" old_y="1700.0" type="priority" weight_num="4.0" weight_sum="0.0" x="419.212452085" x_displacement_sum="-80.787547915" y="1813.10256708" y_displacement_sum="113.102567081" />
    <node avg_slowdown_ratio="0.0" id="node_05x18" junction="True" old_x="500.0" old_y="1800.0" type="priority" weight_num="4.0" weight_sum="0.0" x="470.395085266" x_displacement_sum="-29.6049147336" y="1847.36786357" y_displacement_sum="47.3678635738" />
    <node avg_slowdown_ratio="0.0" id="node_05x19" junction="True" old_x="500.0" old_y="1900.0" type="priority" weight_num="4.0" weight_sum="0.0" x="500.0" y="1900.0" />
    <node avg_slowdown_ratio="0.0" id="node_05x20" junction="True" old_x="500.0" old_y="2000.0" type="priority" weight_num="3.0" weight_sum="0.0" x="500.0" y="2000.0" />
    <node avg_slowdown_ratio="0.0" id="node_06x00" junction="True" old_x="600.0" old_y="0.0" type="priority" weight_num="3.0" weight_sum="0.0" x="600.0" y="0.0" />
    <node avg_slowdown_ratio="0.0" id="node_06x01" junction="True" old_x="600.0" old_y="100.0" type="priority" weight_num="4.0" weight_sum="0.0" x="594.155844156" x_displacement_sum="-5.84415584416" y="86.8506493506" y_displacement_sum="-13.1493506494" />
    <node avg_slowdown_ratio="0.0" id="node_06x02" junction="True" old_x="600.0" old_y="200.0" type="priority" weight_num="4.0" weight_sum="0.0" x="553.122556139" x_displacement_sum="-46.877443861" y="106.245112278" y_displacement_sum="-93.754887722" />
    <node avg_slowdown_ratio="0.0" id="node_06x03" junction="True" old_x="600.0" old_y="300.0" type="priority" weight_num="4.0" weight_sum="0.0" x="504.214179474" x_displacement_sum="-95.7858205255" y="132.37481408" y_displacement_sum="-167.62518592" />
    <node avg_slowdown_ratio="0.0" id="node_06x04" junction="True" old_x="600.0" old_y="400.0" type="priority" weight_num="4.0" weight_sum="0.0" x="445.676274945" x_displacement_sum="-154.323725055" y="168.514412417" y_displacement_sum="-231.485587583" />
    <node avg_slowdown_ratio="0.0" id="node_06x05" junction="True" old_x="600.0" old_y="500.0" type="priority" weight_num="4.0" weight_sum="0.0" x="375.780274657" x_displacement_sum="-224.219725343" y="219.725343321" y_displacement_sum="-280.274656679" />
    <node avg_slowdown_ratio="0.0" id="node_06x06" junction="True" old_x="600.0" old_y="600.0" type="priority" weight_num="4.0" weight_sum="0.0" x="293.411058117" x_displacement_sum="-306.588941883" y="293.411058117" y_displacement_sum="-306.588941883" />
    <node avg_slowdown_ratio="0.0" id="node_06x07" junction="True" old_x="600.0" old_y="700.0" type="priority" weight_num="4.0" weight_sum="0.0" x="242.286171063" x_displacement_sum="-357.713828937" y="431.714628297" y_displacement_sum="-268.285371703" />
    <node avg_slowdown_ratio="0.0" id="node_06x08" junction="True" old_x="600.0" old_y="800.0" type="priority" weight_num="4.0" weight_sum="0.0" x="234.860335196" x_displacement_sum="-365.139664804" y="617.430167598" y_displacement_sum="-182.569832402" />
    <node avg_slowdown_ratio="0.0" id="node_06x09" junction="True" old_x="600.0" old_y="900.0" type="priority" weight_num="4.0" weight_sum="0.0" x="230.247212797" x_displacement_sum="-369.752787203" y="807.561803199" y_displacement_sum="-92.4381968008" />
    <node avg_slowdown_ratio="0.0" id="node_06x10" junction="True" old_x="600.0" old_y="1000.0" type="priority" weight_num="4.0" weight_sum="0.0" x="228.678491132" x_displacement_sum="-371.321508868" y="1000.0" y_displacement_sum="0.0" />