<?xml version='1.0' encoding='UTF-8'?>
<nodes xmlns:xsi="http://www.w3.org/2001/XMLSchema-instance" version="0.27" xsi:noNamespaceSchemaLocation="http://sumo.dlr.de/xsd/edges_file.xsd"><node avg_slowdown_ratio="0.999280057598" id="node_10x10" junction="True" old_x="1000.0" old_y="1000.0" type="priority" weight_num="4.0" weight_sum="3.99712023039" x="1000.0" y="1000.0" />
    <node avg_slowdown_ratio="0.0" id="node_00x00" junction="True" old_x="0.0" old_y="0.0" type="priority" weight_num="2.0" weight_sum="0.0" x="0.0" y="0.0" />
    <node avg_slowdown_ratio="0.0" id="node_00x01" junction="True" old_x="0.0" old_y="100.0" type="priority" weight_num="3.0" weight_sum="0.0" x="0.0" y="100.0" />
    <node avg_slowdown_ratio="0.0" id="node_00x02" junction="True" old_x="0.0" old_y="200.0" type="priority" weight_num="3.0" weight_sum="0.0" x="0.0" y="200.0" />
    <node avg_slowdown_ratio="0.0" id="node_00x03" junction="True" old_x="0.0" old_y="300.0" type="priority" weight_num="3.0" weight_sum="0.0" x="0.0" y="300.0" />
    <node avg_slowdown_ratio="0.0" id="node_00x04" junction="True" old_x="0.0" old_y="400.0" type="priority" weight_num="3.0" weight_sum="0.0" x="0.0" y="400.0" />
    <node avg_slowdown_ratio="0.0" id="node_00x05" junction="True" old_x="0.0" old_y="500.0" type="priority" weight_num="3.0" weight_sum="0.0" x="0.0" y="500.0" />
    <node avg_slowdown_ratio="0.0" id="node_00x06" junction="True" old_x="0.0" old_y="600.0" type="priority" weight_num="3.0" weight_sum="0.0" x="0.0" y="600.0" />
    <node avg_slowdown_ratio="0.0" id="node_00x07" junction="True" old_x="0.0" old_y="700.0" type="priority" weight_num="3.0" weight_sum="0.0" x="0.0" y="700.0" />
    <node avg_slowdown_ratio="0.0" id="node_00x08" junction="True" old_x="0.0" old_y="800.0" type="priority" weight_num="3.0" weight_sum="0.0" x="0.0" y="800.0" />
    <node avg_slowdown_ratio="0.0" id="node_00x09" junction="True" old_x="0.0" old_y="900.0" type="priority" weight_num="3.0" weight_sum="0.0" x="0.0" y="900.0" />
    <node avg_slowdown_ratio="0.0" id="node_00x10" junction="True" old_x="0.0" old_y="1000.0" type="priority" weight_num="3.0" weight_sum="0.0" x="0.0" y="1000.0" />
    <node avg_slowdown_ratio="0.0" id="node_00x11" junction="True" old_x="0.0" old_y="1100.0" type="priority" weight_num="3.0" weight_sum="0.0" x="0.0" y="1100.0" />
    <node avg_slowdown_ratio="0.0" id="node_00x12" junction="True" old_x="0.0" old_y="1200.0" type="priority" weight_num="3.0" weight_sum="0.0" x="0.0" y="1200.0" />
    <node avg_slowdown_ratio="0.0" id="node_00x13" junction="True" old_x="0.0" old_y="1300.0" type="priority" weight_num="3.0" weight_sum="0.0" x="0.0" y="1300.0" />
    <node avg_slowdown_ratio="0.0" id="node_00x14" junction="True" old_x="0.0" old_y="1400.0" type="priority" weight_num="3.0" weight_sum="0.0" x="0.0" y="1400.0" />
    <node avg_slowdown_ratio="0.0" id="node_00x15" junction="True" old_x="0.0" old_y="1500.0" type="priority" weight_num="3.0" weight_sum="0.0" x="0.0" y="1500.0" />
    <node avg_slowdown_ratio="0.0" id="node_00x16" junction="True" old_x="0.0" old_y="1600.0" type="priority" weight_num="3.0" weight_sum="0.0" x="0.0" y="1600.0" />
    <node avg_slowdown_ratio="0.0" id="node_00x17" junction="True" old_x="0.0" old_y="1700.0" type="priority" weight_num="3.0" weight_sum="0.0" x="0.0" y="1700.0" />
    <node avg_slowdown_ratio="0.0" id="node_00x18" junction="True" old_x="0.0" old_y="1800.0" type="priority" weight_num="3.0" weight_sum="0.0" x="0.0" y="1800.0" />
    <node avg_slowdown_ratio="0.0" id="node_00x19" junction="True" old_x="0.0" old_y="1900.0" type="priority" weight_num="3.0" weight_sum="0.0" x="0.0" y="1900.0" />
    <node avg_slowdown_ratio="0.0" id="node_00x20" junction="True" old_x="0.0" old_y="2000.0" type="priority" weight_num="2.0" weight_sum="0.0" x="0.0" y="2000.0" />
    <node avg_slowdown_ratio="0.0" id="node_01x00" junction="True" old_x="100.0" old_y="0.0" type="priority" weight_num="3.0" weight_sum="0.0" x="100.0" y="0.0" />
    <node avg_slowdown_ratio="0.0" id="node_01x01" junction="True" old_x="100.0" old_y="100.0" type="priority" weight_num="4.0" weight_sum="0.0" x="100.0" y="100.0" />
    <node avg_slowdown_ratio="0.0" id="node_01x02" junction="True" old_x="100.0" old_y="200.0" type="priority" weight_num="4.0" weight_sum="0.0" x="100.0" y="200.0" />
    <node avg_slowdown_ratio="0.0" id="node_01x03" junction="True" old_x="100.0" old_y="300.0" type="priority" weight_num="4.0" weight_sum="0.0" x="100.0" y="300.0" />
    <node avg_slowdown_ratio="0.0" id="node_01x04" junction="True" old_x="100.0" old_y="400.0" type="priority" weight_num="4.0" weight_sum="0.0" x="100.0" y="400.0" />
    <node avg_slowdown_ratio="0.0" id="node_01x05" junction="True" old_x="100.0" old_y="500.0" type="priority" weight_num="4.0" weight_sum="0.0" x="100.0" y="500.0" />
    <node avg_slowdown_ratio="0.0" id="node_01x06" junction="True" old_x="100.0" old_y="600.0" type="priority" weight_num="4.0" weight_sum="0.0" x="100.0" y="600.0" />
    <node avg_slowdown_ratio="0.0" id="node_01x07" junction="True" old_x="100.0" old_y="700.0" type="priority" weight_num="4.0" weight_sum="0.0" x="100.0" y="700.0" />
    <node avg_slowdown_ratio="0.0" id="node_01x08" junction="True" old_x="100.0" old_y="800.0" type="priority" weight_num="4.0" weight_sum="0.0" x="100.0" y="800.0" />
    <node avg_slowdown_ratio="0.0" id="node_01x09" junction="True" old_x="100.0" old_y="900.0" type="priority" weight_num="4.0" weight_sum="0.0" x="100.0" y="900.0" />
    <node avg_slowdown_ratio="0.0" id="node_01x10" junction="True" old_x="100.0" old_y="1000.0" type="priority" weight_num="4.0" weight_sum="0.0" x="100.0" y="1000.0" />
    <node avg_slowdown_ratio="0.0" id="node_01x11" junction="True" old_x="100.0" old_y="1100.0" type="priority" weight_num="4.0" weight_sum="0.0" x="100.0" y="1100.0" />
    <node avg_slowdown_ratio="0.0" id="node_01x12" junction="True" old_x="100.0" old_y="1200.0" type="priority" weight_num="4.0" weight_sum="0.0" x="100.0" y="1200.0" />
    <node avg_slowdown_ratio="0.0" id="node_01x13" junction="True" old_x="100.0" old_y="1300.0" type="priority" weight_num="4.0" weight_sum="0.0" x="100.0" y="1300.0" />
    <node avg_slowdown_ratio="0.0" id="node_01x14" junction="True" old_x="100.0" old_y="1400.0" type="priority" weight_num="4.0" weight_sum="0.0" x="100.0" y="1400.0" />
    <node avg_slowdown_ratio="0.0" id="node_01x15" junction="True" old_x="100.0" old_y="1500.0" type="priority" weight_num="4.0" weight_sum="0.0" x="100.0" y="1500.0" />
    <node avg_slowdown_ratio="0.0" id="node_01x16" junction="True" old_x="100.0" old_y="1600.0" type="priority" weight_num="4.0" weight_sum="0.0" x="100.0" y="1600.0" />
    <node avg_slowdown_ratio="0.0" id="node_01x17" junction="True" old_x="100.0" old_y="1700.0" type="priority" weight_num="4.0" weight_sum="0.0" x="100.0" y="1700.0" />
    <node avg_slowdown_ratio="0.0" id="node_01x18" junction="True" old_x="100.0" old_y="1800.0" type="priority" weight_num="4.0" weight_sum="0.0" x="100.0" y="1800.0" />
    <node avg_slowdown_ratio="0.0" id="node_01x19" junction="True" old_x="100.0" old_y="1900.0" type="priority" weight_num="4.0" weight_sum="0.0" x="100.0" y="1900.0" />
    <node avg_slowdown_ratio="0.0" id="node_01x20" junction="True" old_x="100.0" old_y="2000.0" type="priority" weight_num="3.0" weight_sum="0.0" x="100.0" y="2000.0" />
    <node avg_slowdown_ratio="0.0" id="node_02x00" junction="True" old_x="200.0" old_y="0.0" type="priority" weight_num="3.0" weight_sum="0.0" x="200.0" y="0.0" />
    <node avg_slowdown_ratio="0.0" id="node_02x01" junction="True" old_x="200.0" old_y="100.0" type="priority" weight_num="4.0" weight_sum="0.0" x="200.0" y="100.0" />
    <node avg_slowdown_ratio="0.0" id="node_02x02" junction="True" old_x="200.0" old_y="200.0" type="priority" weight_num="4.0" weight_sum="0.0" x="200.0" y="200.0" />
    <node avg_slowdown_ratio="0.0" id="node_02x03" junction="True" old_x="200.0" old_y="300.0" type="priority" weight_num="4.0" weight_sum="0.0" x="200.0" y="300.0" />
    <node avg_slowdown_ratio="0.0" id="node_02x04" junction="True" old_x="200.0" old_y="400.0" type="priority" weight_num="4.0" weight_sum="0.0" x="200.0" y="400.0" />
    <node avg_slowdown_ratio="0.0" id="node_02x05" junction="True" old_x="200.0" old_y="500.0" type="priority" weight_num="4.0" weight_sum="0.0" x="200.0" y="500.0" />
    <node avg_slowdown_ratio="0.0" id="node_02x06" junction="True" old_x="200.0" old_y="600.0" type="priority" weight_num="4.0" weight_sum="0.0" x="200.0" y="600.0" />
    <node avg_slowdown_ratio="0.0" id="node_02x07" junction="True" old_x="200.0" old_y="700.0" type="priority" weight_num="4.0" weight_sum="0.0" x="200.0" y="700.0" />
    <node avg_slowdown_ratio="0.0" id="node_02x08" junction="True" old_x="200.0" old_y="800.0" type="priority" weight_num="4.0" weight_sum="0.0" x="200.0" y="800.0" />
    <node avg_slowdown_ratio="0.0" id="node_02x09" junction="True" old_x="200.0" old_y="900.0" type="priority" weight_num="4.0" weight_sum="0.0" x="200.0" y="900.0" />
    <node avg_slowdown_ratio="0.0" id="node_02x10" junction="True" old_x="200.0" old_y="1000.0" type="priority" weight_num="4.0" weight_sum="0.0" x="200.0" y="1000.0" />
    <node avg_slowdown_ratio="0.0" id="node_02x11" junction="True" old_x="200.0" old_y="1100.0" type="priority" weight_num="4.0" weight_sum="0.0" x="200.0" y="1100.0" />
    <node avg_slowdown_ratio="0.0" id="node_02x12" junction="True" old_x="200.0" old_y="1200.0" type="priority" weight_num="4.0" weight_sum="0.0" x="200.0" y="1200.0" />
    <node avg_slowdown_ratio="0.0" id="node_02x13" junction="True" old_x="200.0" old_y="1300.0" type="priority" weight_num="4.0" weight_sum="0.0" x="200.0" y="1300.0" />
    <node avg_slowdown_ratio="0.0" id="node_02x14" junction="True" old_x="200.0" old_y="1400.0" type="priority" weight_num="4.0" weight_sum="0.0" x="200.0" y="1400.0" />
    <node avg_slowdown_ratio="0.0" id="node_02x15" junction="True" old_x="200.0" old_y="1500.0" type="priority" weight_num="4.0" weight_sum="0.0" x="200.0" y="1500.0" />
    <node avg_slowdown_ratio="0.0" id="node_02x16" junction="True" old_x="200.0" old_y="1600.0" type="priority" weight_num="4.0" weight_sum="0.0" x="200.0" y="1600.0" />
    <node avg_slowdown_ratio="0.0" id="node_02x17" junction="True" old_x="200.0" old_y="1700.0" type="priority" weight_num="4.0" weight_sum="0.0" x="200.0" y="1700.0" />
    <node avg_slowdown_ratio="0.0" id="node_02x18" junction="True" old_x="200.0" old_y="1800.0" type="priority" weight_num="4.0" weight_sum="0.0" x="200.0" y="1800.0" />
    <node avg_slowdown_ratio="0.0" id="node_02x19" junction="True" old_x="200.0" old_y="1900.0" type="priority" weight_num="4.0" weight_sum="0.0" x="200.0" y="1900.0" />
    <node avg_slowdown_ratio="0.0" id="node_02x20" junction="True" old_x="200.0" old_y="2000.0" type="priority" weight_num="3.0" weight_sum="0.0" x="200.0" y="2000.0" />
    <node avg_slowdown_ratio="0.0" id="node_03x00" junction="True" old_x="300.0" old_y="0.0" type="priority" weight_num="3.0" weight_sum="0.0" x="300.0" y="0.0" />
    <node avg_slowdown_ratio="0.0" id="node_03x01" junction="True" old_x="300.0" old_y="100.0" type="priority" weight_num="4.0" weight_sum="0.0" x="300.0" y="100.0" />
    <node avg_slowdown_ratio="0.0" id="node_03x02" junction="True" old_x="300.0" old_y="200.0" type="priority" weight_num="4.0" weight_sum="0.0" x="300.0" y="200.0" />
    <node avg_slowdown_ratio="0.0" id="node_03x03" junction="True" old_x="300.0" old_y="300.0" type="priority" weight_num="4.0" weight_sum="0.0" x="300.0" y="300.0" />
    <node avg_slowdown_ratio="0.0" id="node_03x04" junction="True" old_x="300.0" old_y="400.0" type="priority" weight_num="4.0" weight_sum="0.0" x="300.0" y="400.0" />
    <node avg_slowdown_ratio="0.0" id="node_03x05" junction="True" old_x="300.0" old_y="500.0" type="priority" weight_num="4.0" weight_sum="0.0" x="300.0" y="500.0" />
    <node avg_slowdown_ratio="0.0" id="node_03x06" junction="True" old_x="300.0" old_y="600.0" type="priority" weight_num="4.0" weight_sum="0.0" x="300.0" y="600.0" />
    <node avg_slowdown_ratio="0.0" id="node_03x07" junction="True" old_x="300.0" old_y="700.0" type="priority" weight_num="4.0" weight_sum="0.0" x="300.0" y="700.0" />
    <node avg_slowdown_ratio="0.0" id="node_03x08" junction="True" old_x="300.0" old_y="800.0" type="priority" weight_num="4.0" weight_sum="0.0" x="300.0" y="800.0" />
    <node avg_slowdown_ratio="0.0" id="node_03x09" junction="True" old_x="300.0" old_y="900.0" type="priority" weight_num="4.0" weight_sum="0.0" x="300.0" y="900.0" />
    <node avg_slowdown_ratio="0.0" id="node_03x10" junction="True" old_x="300.0" old_y="1000.0" type="priority" weight_num="4.0" weight_sum="0.0" x="300.0" y="1000.0" />
    <node avg_slowdown_ratio="0.0" id="node_03x11" junction="True" old_x="300.0" old_y="1100.0" type="priority" weight_num="4.0" weight_sum="0.0" x="300.0" y="1100.0" />
    <node avg_slowdown_ratio="0.0" id="node_03x12" junction="True" old_x="300.0" old_y="1200.0" type="priority" weight_num="4.0" weight_sum="0.0" x="300.0" y="1200.0" />
    <node avg_slowdown_ratio="0.0" id="node_03x13" junction="True" old_x="300.0" old_y="1300.0" type="priority" weight_num="4.0" weight_sum="0.0" x="300.0" y="1300.0" />
    <node avg_slowdown_ratio="0.0" id="node_03x14" junction="True" old_x="300.0" old_y="1400.0" type="priority" weight_num="4.0" weight_sum="0.0" x="300.0" y="1400.0" />
    <node avg_slowdown_ratio="0.0" id="node_03x15" junction="True" old_x="300.0" old_y="1500.0" type="priority" weight_num="4.0" weight_sum="0.0" x="300.0" y="1500.0" />
    <node avg_slowdown_ratio="0.0" id="node_03x16" junction="True" old_x="300.0" old_y="1600.0" type="priority" weight_num="4.0" weight_sum="0.0" x="300.0" y="1600.0" />
    <node avg_slowdown_ratio="0.0" id="node_03x17" junction="True" old_x="300.0" old_y="1700.0" type="priority" weight_num="4.0" weight_sum="0.0" x="300.0" y="1700.0" />
    <node avg_slowdown_ratio="0.0" id="node_03x18" junction="True" old_x="300.0" old_y="1800.0" type="priority" weight_num="4.0" weight_sum="0.0" x="300.0" y="1800.0" />
    <node avg_slowdown_ratio="0.0" id="node_03x19" junction="True" old_x="300.0" old_y="1900.0" type="priority" weight_num="4.0" weight_sum="0.0" x="300.0" y="1900.0" />
    <node avg_slowdown_ratio="0.0" id="node_03x20" junction="True" old_x="300.0" old_y="2000.0" type="priority" weight_num="3.0" weight_sum="0.0" x="300.0" y="2000.0" />
    <node avg_slowdown_ratio="0.0" id="node_04x00" junction="True" old_x="400.0" old_y="0.0" type="priority" weight_num="3.0" weight_sum="0.0" x="400.0" y="0.0" />
    <node avg_slowdown_ratio="0.0" id="node_04x01" junction="True" old_x="400.0" old_y="100.0" type="priority" weight_num="4.0" weight_sum="0.0" x="400.0" y="100.0" />
    <node avg_slowdown_ratio="0.0" id="node_04x02" junction="True" old_x="400.0" old_y="200.0" type="priority" weight_num="4.0" weight_sum="0.0" x="400.0" y="200.0" />
    <node avg_slowdown_ratio="0.0" id="node_04x03" junction="True" old_x="400.0" old_y="300.0" type="priority" weight_num="4.0" weight_sum="0.0" x="400.0" y="300.0" />
    <node avg_slowdown_ratio="0.0" id="node_04x04" junction="True" old_x="400.0" old_y="400.0" type="priority" weight_num="4.0" weight_sum="0.0" x="400.0" y="400.0" />
    <node avg_slowdown_ratio="0.0" id="node_04x05" junction="True" old_x="400.0" old_y="500.0" type="priority" weight_num="4.0" weight_sum="0.0" x="400.0" y="500.0" />
    <node avg_slowdown_ratio="0.0" id="node_04x06" junction="True" old_x="400.0" old_y="600.0" type="priority" weight_num="4.0" weight_sum="0.0" x="400.0" y="600.0" />
    <node avg_slowdown_ratio="0.0" id="node_04x07" junction="True" old_x="400.0" old_y="700.0" type="priority" weight_num="4.0" weight_sum="0.0" x="400.0" y="700.0" />
    <node avg_slowdown_ratio="0.0" id="node_04x08" junction="True" old_x="400.0" old_y="800.0" type="priority" weight_num="4.0" weight_sum="0.0" x="367.683799421" x_displacement_sum="-32.316200579" y="789.22793314" y_displacement_sum="-10.7720668597" />
    <node avg_slowdown_ratio="0.0" id="node_04x09" junction="True" old_x="400.0" old_y="900.0" type="priority" weight_num="4.0" weight_sum="0.0" x="342.548920727" x_displacement_sum="-57.4510792732" y="890.424820121" y_displacement_sum="-9.57517987887" />
    <node avg_slowdown_ratio="0.0" id="node_04x10" junction="True" old_x="400.0" old_y="1000.0" type="priority" weight_num="4.0" weight_sum="0.0" x="333.480201582" x_displacement_sum="-66.5197984179" y="1000.0" y_displacement_sum="0.0" />
    <node avg_slowdown_ratio="0.0" id="node_04x11" junction="True" old_x="400.0" old_y="1100.0" type="priority" weight_num="4.0" weight_sum="0.0" x="342.548920727" x_displacement_sum="-57.4510792732" y="1109.57517988" y_displacement_sum="9.57517987887" />
    <node avg_slowdown_ratio="0.0" id="node_04x12" junction="True" old_x="400.0" old_y="1200.0" type="priority" weight_num="4.0" weight_sum="0.0" x="367.683799421" x_displacement_sum="-32.316200579" y="1210.77206686" y_displacement_sum="10.7720668597" />
    <node avg_slowdown_ratio="0.0" id="node_04x13" junction="True" old_x="400.0" old_y="1300.0" type="priority" weight_num="4.0" weight_sum="0.0" x="400.0" y="1300.0" />
    <node avg_slowdown_ratio="0.0" id="node_04x14" junction="True" old_x="400.0" old_y="1400.0" type="priority" weight_num="4.0" weight_sum="0.0" x="400.0" y="1400.0" />
    <node avg_slowdown_ratio="0.0" id="node_04x15" junction="True" old_x="400.0" old_y="1500.0" type="priority" weight_num="4.0" weight_sum="0.0" x="400.0" y="1500.0" />
    <node avg_slowdown_ratio="0.0" id="node_04x16" junction="True" old_x="400.0" old_y="1600.0" type="priority" weight_num="4.0" weight_sum="0.0" x="400.0" y="1600.0" />
    <node avg_slowdown_ratio="0.0" id="node_04x17" junction="True" old_x="400.0" old_y="1700.0" type="priority" weight_num="4.0" weight_sum="0.0" x="400.0" y="1700.0" />
    <node avg_slowdown_ratio="0.0" id="node_04x18" junction="True" old_x="400.0" old_y="1800.0" type="priority" weight_num="4.0" weight_sum="0.0" x="400.0" y="1800.0" />
    <node avg_slowdown_ratio="0.0" id="node_04x19" junction="True" old_x="400.0" old_y="1900.0" type="priority" weight_num="4.0" weight_sum="0.0" x="400.0" y="1900.0" />
    <node avg_slowdown_ratio="0.0" id="node_04x20" junction="True" old_x="400.0" old_y="2000.0" type="priority" weight_num="3.0" weight_sum="0.0" x="400.0" y="2000.0" />
    <node avg_slowdown_ratio="0.0" id="node_05x00" junction="True" old_x="500.0" old_y="0.0" type="priority" weight_num="3.0" weight_sum="0.0" x="500.0" y="0.0" />
    <node avg_slowdown_ratio="0.0" id="node_05x01" junction="True" old_x="500.0" old_y="100.0" type="priority" weight_num="4.0" weight_sum="0.0" x="500.0" y="100.0" />
    <node avg_slowdown_ratio="0.0" id="node_05x02" junction="True" old_x="500.0" old_y="200.0" type="priority" weight_num="4.0" weight_sum="0.0" x="500.0" y="200.0" />
    <node avg_slowdown_ratio="0.0" id="node_05x03" junction="True" old_x="500.0" old_y="300.0" type="priority" weight_num="4.0" weight_sum="0.0" x="500.0" y="300.0" />
    <node avg_slowdown_ratio="0.0" id="node_05x04" junction="True" old_x="500.0" old_y="400.0" type="priority" weight_num="4.0" weight_sum="0.0" x="500.0" y="400.0" />
    <node avg_slowdown_ratio="0.0" id="node_05x05" junction="True" old_x="500.0" old_y="500.0" type="priority" weight_num="4.0" weight_sum="0.0" x="500.0" y="500.0" />
    <node avg_slowdown_ratio="0.0" id="node_05x06" junction="True" old_x="500.0" old_y="600.0" type="priority" weight_num="4.0" weight_sum="0.0" x="479.535478539" x_displacement_sum="-20.4645214608" y="583.628382831" y_displacement_sum="-16.3716171686" />
    <node avg_slowdown_ratio="0.0" id="node_05x07" junction="True" old_x="500.0" old_y="700.0" type="priority" weight_num="4.0" weight_sum="0.0" x="428.463988009" x_displacement_sum="-71.5360119907" y="657.078392806" y_displacement_sum="-42.9216071944" />
    <node avg_slowdown_ratio="0.0" id="node_05x08" junction="True" old_x="500.0" old_y="800.0" type="priority" weight_num="4.0" weight_sum="0.0" x="381.151903155" x_displacement_sum="-118.848096845" y="752.460761262" y_displacement_sum="-47.5392387378" />
    <node avg_slowdown_ratio="0.0" id="node_05x09" junction="True" old_x="500.0" old_y="900.0" type="priority" weight_num="4.0" weight_sum="0.0" x="346.423565706" x_displacement_sum="-153.576434294" y="869.284713141" y_displacement_sum="-30.7152868588" />
    <node avg_slowdown_ratio="0.0" id="node_05x10" junction="True" old_x="500.0" old_y="1000.0" type="priority" weight_num="4.0" weight_sum="0.0" x="333.480201582" x_displacement_sum="-166.519798418" y="1000.0" y_displacement_sum="0.0" />
    <node avg_slowdown_ratio="0.0" id="node_05x11" junction="True" old_x="500.0" old_y="1100.0" type="priority" weight_num="4.0" weight_sum="0.0" x="346.423565706" x_displacement_sum="-153.576434294" y="1130.71528686" y_displacement_sum="30.7152868588" />
    <node avg_slowdown_ratio="0.0" id="node_05x12" junction="True" old_x="500.0" old_y="1200.0" type="priority" weight_num="4.0" weight_sum="0.0" x="381.151903155" x_displacement_sum="-118.848096845" y="1247.53923874" y_displacement_sum="47.5392387378" />
    <node avg_slowdown_ratio="0.0" id="node_05x13" junction="True" old_x="500.0" old_y="1300.0" type="priority" weight_num="4.0" weight_sum="0.0" x="428.463988009" x_displacement_sum="-71.5360119907" y="1342.92160719" y_displacement_sum="42.9216071944" />
    <node avg_slowdown_ratio="0.0" id="node_05x14" junction="True" old_x="500.0" old_y="1400.0" type="priority" weight_num="4.0" weight_sum="0.0" x="479.535478539" x_displacement_sum="-20.4645214608" y="1416.37161717" y_displacement_sum="16.3716171686" />
    <node avg_slowdown_ratio="0.0" id="node_05x15" junction="True" old_x="500.0" old_y="1500.0" type="priority" weight_num="4.0" weight_sum="0.0" x="500.0" y="1500.0" />
    <node avg_slowdown_ratio="0.0" id="node_05x16" junction="True" old_x="500.0" old_y="1600.0" type="priority" weight_num="4.0" weight_sum="0.0" x="500.0" y="1600.0" />
    <node avg_slowdown_ratio="0.0" id="node_05x17" junction="True" old_x="500.0" old_y="1700.0" type="priority" weight_num="4.0" weight_sum="0.0" x="500.0" y="1700.0" />
    <node avg_slowdown_ratio="0.0" id="node_05x18" junction="True" old_x="500.0" old_y="1800.0" type="priority" weight_num="4.0" weight_sum="0.0" x="500.0" y="1800.0" />
    <node avg_slowdown_ratio="0.0" id="node_05x19" junction="True" old_x="500.0" old_y="1900.0" type="priority" weight_num="4.0" weight_sum="0.0" x="500.0" y="1900.0" />
    <node avg_slowdown_ratio="0.0" id="node_05x20" junction="True" old_x="500.0" old_y="2000.0" type="priority" weight_num="3.0" weight_sum="0.0" x="500.0" y="2000.0" />
    <node avg_slowdown_ratio="0.0" id="node_06x00" junction="True" old_x="600.0" old_y="0.0" type="priority" weight_num="3.0" weight_sum="0.0" x="600.0" y="0.0" />
    <node avg_slowdown_ratio="0.0" id="node_06x01" junction="True" old_x="600.0" old_y="100.0" type="priority" weight_num="4.0" weight_sum="0.0" x="600.0" y="100.0" />
    <node avg_slowdown_ratio="0.0" id="node_06x02" junction="True" old_x="600.0" old_y="200.0" type="priority" weight_num="4.0" weight_sum="0.0" x="600.0" y="200.0" />
    <node avg_slowdown_ratio="0.0" id="node_06x03" junction="True" old_x="600.0" old_y="300.0" type="priority" weight_num="4.0" weight_sum="0.0" x="600.0" y="300.0" />
    <node avg_slowdown_ratio="0.0" id="node_06x04" junction="True" old_x="600.0" old_y="400.0" type="priority" weight_num="4.0" weight_sum="0.0" x="600.0" y="400.0" />
    <node avg_slowdown_ratio="0.0" id="node_06x05" junction="True" old_x="600.0" old_y="500.0" type="priority" weight_num="4.0" weight_sum="0.0" x="583.628382831" x_displacement_sum="-16.3716171686" y="479.535478539" y_displacement_sum="-20.4645214608" />
    <node avg_slowdown_ratio="0.0" id="node_06x06" junction="True" old_x="600.0" old_y="600.0" type="priority" weight_num="4.0" weight_sum="0.0" x="528.699330744" x_displacement_sum="-71.3006692564" y="528.699330744" y_displacement_sum="-71.3006692564" />
    <node avg_slowdown_ratio="0.0" id="node_06x07" junction="True" old_x="600.0" old_y="700.0" type="priority" weight_num="4.0" weight_sum="0.0" x="466.784161266" x_displacement_sum="-133.215838734" y="600.088120949" y_displacement_sum="-99.9118790507" />
    <node avg_slowdown_ratio="0.0" id="node_06x08" junction="True" old_x="600.0" old_y="800.0" type="priority" weight_num="4.0" weight_sum="0.0" x="403.846568955" x_displacement_sum="-196.153431045" y="701.923284478" y_displacement_sum="-98.0767155224" />
    <node avg_slowdown_ratio="0.0" id="node_06x09" junction="True" old_x="600.0" old_y="900.0" type="priority" weight_num="4.0" weight_sum="0.0" x="353.380816367" x_displacement_sum="-246.619183633" y="838.345204092" y_displacement_sum="-61.6547959084" />
    <node avg_slowdown_ratio="0.0" id="node_06x10" junction="True" old_x="600.0" old_y="1000.0" type="priority" weight_num="4.0" weight_sum="0.0" x="333.480201582" x_displacement_sum="-266.519798418" y="1000.0" y_displacement_sum="0.0" />
    <node avg_slowdown_ratio="0.0" id="node_06x11" junction="True" old_x="600.0" old_y="1100.0" type="priority" weight_num="4.0" weight_sum="0.0" x="353.380816367" x_displacement_sum="-246.619183633" y="1161.65479591" y_displacement_sum="61.6547959084" />
    <node avg_slowdown_ratio="0.0" id="node_06x12" junction="True" old_x="600.0" old_y="1200.0" type="priority" weight_num="4.0" weight_sum="0.0" x="403.846568955" x_displacement_sum="-196.153431045" y="1298.07671552" y_displacement_sum="98.0767155224" />
    <node avg_slowdown_ratio="0.0" id="node_06x13" junction="True" old_x="600.0" old_y="1300.0" type="priority" weight_num="4.0" weight_sum="0.0" x="466.784161266" x_displacement_sum="-133.215838734" y="1399.91187905" y_displacement_sum="99.9118790507" />
    <node avg_slowdown_ratio="0.0" id="node_06x14" junction="True" old_x="600.0" old_y="1400.0" type="priority" weight_num="4.0" weight_sum="0.0" x="528.699330744" x_displacement_sum="-71.3006692564" y="1471.30066926" y_displacement_sum="71.3006692564" />
    <node avg_slowdown_ratio="0.0" id="node_06x15" junction="True" old_x="600.0" old_y="1500.0" type="priority" weight_num="4.0" weight_sum="0.0" x="583.628382831" x_displacement_sum="-16.3716171686" y="1520.46452146" y_displacement_sum="20.4645214608" />
    <node avg_slowdown_ratio="0.0" id="node_06x16" junction="True" old_x="600.0" old_y="1600.0" type="priority" weight_num="4.0" weight_sum="0.0" x="600.0" y="1600.0" />
    <node avg_slowdown_ratio="0.0" id="node_06x17" junction="True" old_x="600.0" old_y="1700.0" type="priority" weight_num="4.0" weight_sum="0.0" x="600.0" y="1700.0" />
    <node avg_slowdown_ratio="0.0" id="node_06x18" junction="True" old_x="600.0" old_y="1800.0" type="priority" weight_num="4.0" weight_sum="0.0" x="600.0" y="1800.0" />
    <node avg_slowdown_ratio="0.0" id="node_06x19" junction="True" old_x="600.0" old_y="1900.0" type="priority" weight_num="4.0" weight_sum="0.0" x="600.0" y="1900.0" />
    <node avg_slowdown_ratio="0.0" id="node_06x20" junction="True" old_x="600.0" old_y="2000.0" type="priority" weight_num="3.0" weight_sum="0.0" x="600.0" y="2000.0" />
    <node avg_slowdown_ratio="0.0" id="node_07x00" junction="True" old_x="700.0" old_y="0.0" type="priority" weight_num="3.0" weight_sum="0.0" x="700.0" y="0.0" />
    <node avg_slowdown_ratio="0.0" id="node_07x01" junction="True" old_x="700.0" old_y="100.0" type="priority" weight_num="4.0" weight_sum="0.0" x="700.0" y="100.0" />
    <node avg_slowdown_ratio="0.0" id="node_07x02" junction="True" old_x="700.0" old_y="200.0" type="priority" weight_num="4.0" weight_sum="0.0" x="700.0" y="200.0" />
    <node avg_slowdown_ratio="0.0" id="node_07x03" junction="True" old_x="700.0" old_y="300.0" type="priority" weight_num="4.0" weight_sum="0.0" x="700.0" y="300.0" />
    <node avg_slowdown_ratio="0.0" id="node_07x04" junction="True" old_x="700.0" old_y="400.0" type="priority" weight_num="4.0" weight_sum="0.0" x="700.0" y="400.0" />
    <node avg_slowdown_ratio="0.0" id="node_07x05" junction="True" old_x="700.0" old_y="500.0" type="priority" weight_num="4.0" weight_sum="0.0" x="657.078392806" x_displacement_sum="-42.9216071944" y="428.463988009" y_displacement_sum="-71.5360119907" />
    <node avg_slowdown_ratio="0.0" id="node_07x06" junction="True" old_x="700.0" old_y="600.0" type="priority" weight_num="4.0" weight_sum="0.0" x="600.088120949" x_displacement_sum="-99.9118790507" y="466.784161266" y_displacement_sum="-133.215838734" />
    <node avg_slowdown_ratio="0.0" id="node_07x07" junction="True" old_x="700.0" old_y="700.0" type="priority" weight_num="4.0" weight_sum="0.0" x="528.699330744" x_displacement_sum="-171.300669256" y="528.699330744" y_displacement_sum="-171.300669256" />
    <node avg_slowdown_ratio="0.0" id="node_07x08" junction="True" old_x="700.0" old_y="800.0" type="priority" weight_num="4.0" weight_sum="0.0" x="445.422005544" x_displacement_sum="-254.577994456" y="630.28133703" y_displacement_sum="-169.71866297" />
    <node avg_slowdown_ratio="0.0" id="node_07x09" junction="True" old_x="700.0" old_y="900.0" type="priority" weight_num="4.0" weight_sum="0.0" x="428.95859987" x_displacement_sum="-271.04140013" y="809.652866623" y_displacement_sum="-90.3471333767" />
    <node avg_slowdown_ratio="0.0" id="node_07x10" junction="True" old_x="700.0" old_y="1000.0" type="priority" weight_num="4.0" weight_sum="0.0" x="426.433700578" x_displacement_sum="-273.566299422" y="1000.0" y_displacement_sum="0.0" />
    <node avg_slowdown_ratio="0.0" id="node_07x11" junction="True" old_x="700.0" old_y="1100.0" type="priority" weight_num="4.0" weight_sum="0.0" x="428.95859987" x_displacement_sum="-271.04140013" y="1190.34713338" y_displacement_sum="90.3471333767" />