<?xml version='1.0' encoding='UTF-8'?>
<nodes xmlns:xsi="http://www.w3.org/2001/XMLSchema-instance" version="0.27" xsi:noNamespaceSchemaLocation="http://sumo.dlr.de/xsd/nodes_file.xsd">
    <location convBoundary="2208.92,522.44,21219.92,15402.46" netOffset="-224973.31,-2700122.99" origBoundary="54.286966,24.391306,54.609531,24.591038" projParameter="+proj=utm +zone=40 +ellps=WGS84 +datum=WGS84 +units=m +no_defs" />

    <node id="-170405842-AddedOffRampNode" type="priority" x="17782.67" y="3111.06" />
    <node id="-227103756#2-AddedOffRampNode" type="priority" x="12253.07" y="10273.92" />
    <node id="-243197772#5-AddedOffRampNode" type="priority" x="11357.37" y="11167.90" />
    <node id="1003388266" tl="GS_1003388266" type="traffic_light" x="9211.77" y="7843.76" />
    <node id="1003388268" type="priority" x="10104.41" y="7647.38" />
    <node id="1003388284" type="priority" x="9157.79" y="7847.26" />
    <node id="1003388319" tl="GS_1003388319" type="traffic_light" x="10172.80" y="7642.66" />
    <node id="100596053#3-AddedOffRampNode" type="priority" x="8269.74" y="11974.05" />
    <node id="100596053#6-AddedOffRampNode" type="priority" x="8712.19" y="11723.58" />
    <node id="100596086#4-AddedOnRampNode" type="priority" x="9990.37" y="10135.54" />
    <node id="1024577672" type="priority" x="3380.32" y="9011.83" />
    <node id="1024577817" type="priority" x="3399.16" y="8987.87" />
    <node id="1024797232" type="priority" x="3410.06" y="7794.91" />
    <node id="1024797388" type="priority" x="2393.19" y="7618.78" />
    <node id="1024797617" type="unregulated" x="2340.72" y="8113.59" />
    <node id="1024797763" type="unregulated" x="2343.00" y="8104.11" />
    <node id="1024798120" type="priority" x="3175.71" y="7666.08" />
    <node id="1026500732" type="priority" x="18942.91" y="3352.66" />
    <node id="1026500754" type="priority" x="18917.19" y="3335.29" />
    <node id="1026593915" type="priority" x="9857.99" y="11164.28" />
    <node id="1026593918" type="priority" x="9834.30" y="11110.27" />
    <node id="1026593919" type="priority" x="9841.70" y="11155.29" />
    <node id="1026593951" type="priority" x="7382.02" y="11481.01" />
    <node id="1026593953" type="priority" x="9908.90" y="11164.09" />
    <node id="1026593958" type="priority" x="7387.84" y="11534.46" />
    <node id="1026645559" type="priority" x="6784.82" y="10811.17" />
    <node id="1026645578" type="priority" x="6458.59" y="9832.30" />
    <node id="1026645624" type="priority" x="3603.38" y="8780.94" />
    <node id="1026645661" type="priority" x="5878.41" y="9286.71" />
    <node id="1026646011" type="priority" x="6501.97" y="10505.15" />
    <node id="1026646185" type="priority" x="6741.29" y="10825.40" />
    <node id="1026646224" type="priority" x="6511.70" y="9888.98" />
    <node id="1026646233" type="priority" x="6526.47" y="10477.36" />
    <node id="1026646302" type="priority" x="6526.09" y="9836.65" />
    <node id="1026646387" type="priority" x="6530.55" y="10505.31" />
    <node id="1026646515" type="priority" x="6472.01" y="9882.01" />
    <node id="1026714663" type="priority" x="7909.94" y="11683.14" />
    <node id="1026714666" type="priority" x="8043.99" y="12103.01" />
    <node id="1026714706" type="priority" x="7750.20" y="11798.79" />
    <node id="1026714719" type="priority" x="7161.81" y="11401.52" />
    <node id="1026714738" type="priority" x="8071.20" y="11955.22" />
    <node id="1026714743" type="priority" x="7788.68" y="11887.96" />
    <node id="1026714899" type="priority" x="7831.48" y="11855.75" />
    <node id="1026714967" type="priority" x="8140.86" y="11840.71" />
    <node id="1026714971" type="priority" x="7588.17" y="11682.58" />
    <node id="1026714978" type="priority" x="7918.79" y="11699.88" />
    <node id="1027680400" type="priority" x="7121.61" y="11093.32" />
    <node id="1027680402" type="priority" x="7084.51" y="11097.62" />
    <node id="1027680403" type="priority" x="7119.69" y="11085.07" />
    <node id="1027680414" type="priority" x="7133.02" y="11109.05" />
    <node id="1027680417" type="priority" x="7100.36" y="11074.75" />
    <node id="1027680423" type="priority" x="7094.10" y="11076.73" />
    <node id="1027680429" type="priority" x="7112.67" y="11109.21" />
    <node id="1027695860" type="priority" x="7049.96" y="11070.72" />
    <node id="1027695868" type="priority" x="7209.46" y="10444.47" />
    <node id="1027695976" type="priority" x="7169.47" y="10447.88" />
    <node id="1032819771" type="priority" x="11668.64" y="8653.84" />
    <node id="1038949780" type="priority" x="6913.69" y="7258.78" />
    <node id="1038949782" type="priority" x="7080.37" y="7295.18" />
    <node id="1038949784" type="priority" x="6982.34" y="7242.60" />
    <node id="1038949792" type="priority" x="7075.49" y="7328.53" />
    <node id="1038949794" type="priority" x="6900.13" y="7186.60" />
    <node id="1038949799" type="priority" x="6898.50" y="7248.34" />
    <node id="1038949802" type="priority" x="6966.82" y="7170.70" />
    <node id="1038949805" type="priority" x="6978.46" y="7262.04" />
    <node id="1038949808" type="priority" x="6976.99" y="7183.10" />
    <node id="1038949809" type="priority" x="7047.07" y="7302.18" />
    <node id="1038949815" type="priority" x="6915.29" y="7178.55" />
    <node id="1038949816" type="priority" x="6681.34" y="6890.90" />
    <node id="1038949826" type="priority" x="6799.24" y="7066.02" />
    <node id="1039020501" type="priority" x="6293.03" y="6302.95" />
    <node id="1039020601" type="priority" x="6010.84" y="6319.47" />
    <node id="1039154231" type="priority" x="6328.24" y="6639.99" />
    <node id="1039154404" type="priority" x="5836.26" y="6401.01" />
    <node id="1039154426" type="priority" x="6299.97" y="6804.43" />
    <node id="1039154598" type="priority" x="6172.61" y="6832.47" />
    <node id="1039154670" type="unregulated" x="6684.85" y="6076.76" />
    <node id="1039154728" type="priority" x="6010.30" y="6369.89" />
    <node id="1039154826" type="priority" x="6070.72" y="6520.86" />
    <node id="1039154880" type="priority" x="5896.72" y="6452.21" />
    <node id="1039155143" type="unregulated" x="6676.48" y="6086.16" />
    <node id="1039155187" type="priority" x="6018.08" y="6403.34" />
    <node id="1039155231" type="priority" x="5857.05" y="6423.11" />
    <node id="1039155444" type="priority" x="5913.68" y="6401.69" />
    <node id="1039155450" type="priority" x="5997.62" y="6425.60" />
    <node id="1039169474" type="priority" x="5048.97" y="6399.88" />
    <node id="1039169596" type="priority" x="4872.66" y="6581.57" />
    <node id="1039169698" type="priority" x="4943.82" y="6615.80" />
    <node id="1039194280" type="priority" x="6415.35" y="6161.02" />
    <node id="1039211522" type="priority" x="6262.60" y="6337.83" />
    <node id="1039211547" type="priority" x="6313.41" y="6279.31" />
    <node id="1039211548" type="priority" x="6383.84" y="6468.26" />
    <node id="1039211649" type="priority" x="6518.16" y="6450.33" />
    <node id="1039227951" type="priority" x="6048.47" y="6941.43" />
    <node id="1040646594" type="priority" x="7904.62" y="6055.78" />
    <node id="1040646620" type="priority" x="7674.67" y="6309.04" />
    <node id="1040646625" type="priority" x="7721.19" y="6238.22" />
    <node id="1040646642" type="priority" x="7243.69" y="6201.12" />
    <node id="1040646655" type="priority" x="7738.20" y="5691.62" />
    <node id="1040646657" type="priority" x="7905.80" y="6038.14" />
    <node id="1040646663" type="priority" x="7811.24" y="6167.52" />
    <node id="1040646738" type="priority" x="7170.14" y="6260.69" />
    <node id="1040646759" type="priority" x="7671.60" y="5694.32" />
    <node id="1040646768" type="priority" x="7614.06" y="5789.93" />
    <node id="1040646783" type="priority" x="7592.34" y="5790.36" />
    <node id="1040646784" type="priority" x="7611.77" y="6368.11" />
    <node id="1040646801" type="priority" x="7677.94" y="6324.30" />
    <node id="1040646807" type="priority" x="7623.49" y="5797.95" />
    <node id="1040646839" type="priority" x="7609.19" y="5770.71" />
    <node id="1040646857" type="priority" x="7190.35" y="6194.45" />
    <node id="1040646914" type="priority" x="7739.43" y="5896.59" />
    <node id="1040646970" type="priority" x="7982.81" y="5897.60" />
    <node id="1040646978" type="priority" x="7728.82" y="6266.14" />
    <node id="1040647012" type="priority" x="7169.32" y="6199.17" />
    <node id="1040647017" type="priority" x="7802.70" y="6140.94" />
    <node id="1040647019" type="priority" x="7666.64" y="6303.34" />
    <node id="1040647040" type="priority" x="7694.79" y="6305.49" />
    <node id="1040647108" type="priority" x="7992.70" y="5956.18" />
    <node id="1040647116" type="priority" x="7729.01" y="6244.74" />
    <node id="1040647120" type="priority" x="7188.98" y="6267.52" />
    <node id="1040647164" type="priority" x="7249.82" y="6244.33" />
    <node id="1040647183" type="priority" x="7749.19" y="6241.77" />
    <node id="1040647196" type="priority" x="7920.40" y="5966.91" />
    <node id="1040647198" type="priority" x="7810.22" y="6147.33" />
    <node id="1040647267" type="priority" x="7778.24" y="5929.61" />
    <node id="1040647286" type="priority" x="7234.92" y="6184.84" />
    <node id="1040647299" type="priority" x="7257.09" y="6277.24" />
    <node id="1040647305" type="priority" x="7827.69" y="6147.84" />
    <node id="1040661947" type="priority" x="8004.37" y="7222.16" />
    <node id="1040661982" type="priority" x="7952.17" y="7151.83" />
    <node id="1040661983" type="priority" x="7900.60" y="7214.52" />
    <node id="1040662003" type="priority" x="7994.38" y="7187.97" />
    <node id="1052165754" type="priority" x="7207.53" y="7454.43" />
    <node id="1052165761" tl="GS_1052165761" type="traffic_light" x="9241.47" y="7917.35" />
    <node id="1052165762" type="priority" x="6308.89" y="7892.75" />
    <node id="1052165764" type="priority" x="8434.97" y="7000.28" />
    <node id="1052165777" type="priority" x="8780.80" y="6625.91" />
    <node id="1052165782" type="priority" x="8762.64" y="6647.42" />
    <node id="1052165801" type="priority" x="8000.24" y="8205.35" />
    <node id="1052165805" type="priority" x="6163.48" y="8165.88" />
    <node id="1052165808" type="priority" x="7275.55" y="7459.67" />
    <node id="1052165811" type="priority" x="6319.38" y="7957.22" />
    <node id="1052165819" type="priority" x="5754.25" y="8645.54" />
    <node id="1052165830" type="priority" x="7515.93" y="7748.49" />
    <node id="1052165833" type="priority" x="8559.48" y="6596.25" />
    <node id="1052165835" type="priority" x="7527.33" y="7816.37" />
    <node id="1052165853" type="priority" x="6371.75" y="7894.19" />
    <node id="1052165876" type="priority" x="7217.52" y="7529.16" />
    <node id="1052165892" type="priority" x="9185.27" y="7806.75" />
    <node id="1052165943" type="priority" x="9300.31" y="6523.37" />
    <node id="1052165944" type="priority" x="7205.51" y="7520.59" />
    <node id="1052165945" type="priority" x="8659.84" y="6562.17" />
    <node id="1052165950" type="priority" x="9338.42" y="6530.45" />
    <node id="1052165953" type="priority" x="7507.76" y="7811.14" />
    <node id="1052165957" type="priority" x="8367.19" y="6942.82" />
    <node id="1052165958" type="priority" x="8736.39" y="6678.51" />
    <node id="1052165961" type="priority" x="8753.35" y="6760.96" />
    <node id="1052165967" type="priority" x="7575.95" y="7760.32" />
    <node id="1052165974" type="priority" x="8583.02" y="6616.25" />
    <node id="1052165981" type="priority" x="7270.52" y="7514.61" />
    <node id="1052165984" type="priority" x="8433.53" y="7072.36" />
    <node id="1052165987" type="priority" x="9224.68" y="7935.87" />
    <node id="1052165993" type="priority" x="6367.57" y="7877.49" />
    <node id="1052165997" type="priority" x="7569.16" y="7739.89" />
    <node id="1052166004" type="priority" x="6371.42" y="7946.20" />
    <node id="1052166008" type="priority" x="6301.82" y="7956.69" />
    <node id="1052166014" type="priority" x="5991.97" y="8291.10" />
    <node id="1052166021" type="priority" x="9231.81" y="7851.40" />
    <node id="1052166042" type="priority" x="6300.37" y="7910.59" />
    <node id="1052166058" type="priority" x="8691.91" y="6640.13" />
    <node id="1052166065" type="priority" x="5702.19" y="8659.36" />
    <node id="1052166069" tl="GS_1052166069" type="traffic_light" x="9157.08" y="7939.01" />
    <node id="1052166093" type="priority" x="8306.01" y="7017.05" />
    <node id="1052166097" type="priority" x="6363.01" y="7958.73" />
    <node id="1052166103" type="priority" x="8374.50" y="7074.39" />
    <node id="1052166130" type="priority" x="7508.84" y="7761.82" />
    <node id="1052166149" type="priority" x="7203.72" y="7476.52" />
    <node id="1052166152" type="priority" x="6231.97" y="8222.95" />
    <node id="1052166177" type="priority" x="8042.37" y="8202.65" />
    <node id="1052166190" type="priority" x="8384.21" y="6957.25" />
    <node id="1052166195" type="priority" x="7259.51" y="7526.60" />
    <node id="1052166208" type="priority" x="8739.21" y="6585.56" />
    <node id="1052166211" type="priority" x="9135.43" y="7931.03" />
    <node id="1052166235" type="priority" x="8717.00" y="6609.57" />
    <node id="1052166254" type="priority" x="7262.54" y="7452.91" />
    <node id="1052166273" type="priority" x="8325.50" y="7033.38" />
    <node id="1052166282" tl="GS_1052166282" type="traffic_light" x="9130.99" y="7857.62" />
    <node id="1061694756" type="priority" x="7315.54" y="10277.93" />
    <node id="1061694758" type="priority" x="7123.69" y="10384.51" />
    <node id="1061694793" type="priority" x="7469.46" y="10601.46" />
    <node id="1061694825" type="priority" x="7793.61" y="10859.97" />
    <node id="1061694842" type="priority" x="7555.16" y="10371.96" />
    <node id="1061694849" type="priority" x="7516.93" y="10423.52" />
    <node id="1061694869" type="priority" x="7640.16" y="10433.72" />
    <node id="1061694877" type="priority" x="7308.94" y="10415.26" />
    <node id="1061694878" type="priority" x="7496.94" y="10450.49" />
    <node id="1061694893" type="priority" x="7846.58" y="10862.03" />
    <node id="1061694910" type="priority" x="7294.91" y="10882.38" />
    <node id="1061694920" type="priority" x="7451.08" y="10512.34" />
    <node id="1061694922" type="priority" x="7599.61" y="10487.01" />
    <node id="1061694936" type="priority" x="7218.55" y="10348.70" />
    <node id="1061694972" type="priority" x="7295.13" y="10840.05" />
    <node id="1061695018" type="priority" x="7515.37" y="10256.52" />
    <node id="1061695019" type="priority" x="7444.69" y="10637.70" />
    <node id="1061695057" type="priority" x="7489.69" y="10324.37" />
    <node id="1061695071" type="priority" x="7458.66" y="10630.81" />
    <node id="1061695075" type="priority" x="7326.35" y="10819.72" />
    <node id="1061695080" type="priority" x="7433.13" y="10403.30" />
    <node id="1061695098" type="priority" x="7351.83" y="10550.75" />
    <node id="1061695118" type="priority" x="7645.70" y="10561.22" />
    <node id="1061695127" type="priority" x="7463.80" y="10425.98" />
    <node id="1061695134" type="priority" x="7379.36" y="10855.76" />
    <node id="1061695138" type="priority" x="7412.42" y="10691.51" />
    <node id="1061695169" type="priority" x="7579.08" y="10513.97" />
    <node id="1061695184" type="priority" x="7418.20" y="10487.88" />
    <node id="1061695185" type="priority" x="7538.04" y="10395.04" />
    <node id="1061695201" type="priority" x="7540.09" y="10275.03" />
    <node id="1061695205" type="priority" x="7727.57" y="10622.99" />
    <node id="1061695216" type="priority" x="7652.18" y="10417.94" />
    <node id="1061695230" type="priority" x="7621.49" y="10458.27" />
    <node id="1061695235" type="priority" x="7567.83" y="10354.86" />
    <node id="1061695241" type="priority" x="7704.52" y="10480.49" />
    <node id="1061695242" type="priority" x="7638.26" y="10744.50" />
    <node id="1061695244" type="priority" x="7097.12" y="10434.08" />
    <node id="1061695246" type="priority" x="7388.39" y="10465.68" />
    <node id="1061695253" type="priority" x="7248.22" y="10371.83" />
    <node id="1061695255" type="priority" x="7715.97" y="10464.86" />
    <node id="1061695257" type="priority" x="7301.07" y="10267.20" />
    <node id="1061695271" type="priority" x="7877.19" y="10755.39" />
    <node id="1061695272" tl="GS_1061695272" type="traffic_light" x="7852.75" y="10903.93" />
    <node id="1061695276" type="priority" x="7326.10" y="10791.02" />
    <node id="1061695290" tl="GS_1061695290" type="traffic_light" x="7831.45" y="10853.26" />
    <node id="1061695297" type="priority" x="7516.50" y="10287.02" />
    <node id="1063911773" type="priority" x="8700.22" y="7490.67" />
    <node id="1063911783" type="priority" x="9701.96" y="7256.94" />
    <node id="1063911811" type="priority" x="9816.26" y="7030.70" />
    <node id="1063911832" type="priority" x="9886.21" y="7033.16" />
    <node id="1063911843" type="priority" x="9645.48" y="7265.50" />
    <node id="1063911879" type="priority" x="9740.14" y="7121.90" />
    <node id="1063911900" type="priority" x="8881.18" y="7281.92" />
    <node id="1063911922" type="priority" x="9760.58" y="7186.42" />
    <node id="1063911973" type="priority" x="8655.67" y="7493.32" />
    <node id="1063911985" type="priority" x="8632.41" y="7434.44" />
    <node id="1065139559" type="priority" x="6395.53" y="8642.01" />
    <node id="1065139562" type="priority" x="6932.79" y="8447.10" />
    <node id="1065139565" type="priority" x="6539.78" y="8547.72" />
    <node id="1065139574" type="priority" x="6999.37" y="8479.43" />
    <node id="1065139577" type="priority" x="6352.97" y="8736.58" />
    <node id="1065139584" type="priority" x="6425.43" y="8531.29" />
    <node id="1065139585" type="priority" x="6367.27" y="9243.87" />
    <node id="1065139586" type="priority" x="6522.12" y="8527.71" />
    <node id="1065139588" type="priority" x="6461.31" y="8754.95" />
    <node id="1065139592" type="priority" x="6556.07" y="8561.70" />
    <node id="1065139599" type="priority" x="6296.85" y="9183.89" />
    <node id="1065139613" type="priority" x="5782.64" y="8724.18" />
    <node id="1065139623" type="priority" x="6938.27" y="8484.88" />
    <node id="1065139625" type="priority" x="6325.29" y="8579.55" />
    <node id="1065139627" type="priority" x="6298.52" y="9241.28" />
    <node id="1065139628" type="priority" x="6479.06" y="8459.99" />
    <node id="1065139630" type="priority" x="6370.42" y="8714.69" />
    <node id="1065139633" type="priority" x="6366.34" y="9221.41" />
    <node id="1065139636" type="priority" x="5771.02" y="8653.15" />
    <node id="1065139640" type="priority" x="6360.47" y="8608.86" />
    <node id="1065139644" type="priority" x="6576.99" y="8535.38" />
    <node id="1065139649" type="priority" x="6860.33" y="8382.70" />
    <node id="1065139650" type="priority" x="6372.91" y="9180.19" />
    <node id="1065139655" type="priority" x="6312.13" y="9247.96" />
    <node id="1065139665" type="priority" x="6290.49" y="8694.56" />
    <node id="1065139686" type="priority" x="6504.61" y="8549.99" />
    <node id="1065139690" type="priority" x="6361.36" y="8781.86" />
    <node id="1065139707" type="priority" x="6381.80" y="8629.02" />
    <node id="1065139714" type="priority" x="6270.00" y="8722.92" />
    <node id="1065139721" type="priority" x="6460.93" y="8484.24" />
    <node id="1065139735" type="priority" x="6998.50" y="8439.07" />
    <node id="1065139736" type="priority" x="6539.05" y="8506.17" />
    <node id="1065139749" type="priority" x="6355.66" y="9171.47" />
    <node id="1065139758" type="priority" x="6359.25" y="8705.89" />
    <node id="1065139759" type="priority" x="6492.53" y="8441.98" />
    <node id="1065139769" type="priority" x="6305.31" y="9172.54" />
    <node id="1066729550" type="priority" x="7437.32" y="10775.44" />
    <node id="1066729576" type="priority" x="7663.24" y="10880.79" />
    <node id="1066729580" type="priority" x="7594.70" y="10975.80" />
    <node id="1066729645" type="priority" x="7747.19" y="10941.88" />
    <node id="1066729742" type="priority" x="7246.33" y="10904.38" />
    <node id="1066729766" type="priority" x="7371.50" y="10928.57" />
    <node id="1066729775" type="priority" x="7416.71" y="10958.42" />
    <node id="1066729806" type="priority" x="7524.80" y="11042.36" />
    <node id="1066729874" type="priority" x="7678.64" y="11037.15" />
    <node id="1066729914" type="priority" x="7652.66" y="11071.08" />
    <node id="1066729938" type="priority" x="7419.79" y="10680.30" />
    <node id="1066730051" type="priority" x="7585.36" y="11110.86" />
    <node id="1066730056" type="priority" x="7646.82" y="11104.27" />
    <node id="1066742875" type="priority" x="7849.00" y="10921.67" />
    <node id="1066742878" tl="GS_1066742878" type="traffic_light" x="7799.83" y="10928.97" />
    <node id="1066742893" type="priority" x="7787.11" y="10913.53" />
    <node id="1066742913" tl="GS_1066742913" type="traffic_light" x="7772.37" y="10864.50" />
    <node id="1067831414" type="priority" x="6512.39" y="9972.41" />
    <node id="1067831416" type="priority" x="6441.90" y="10027.82" />
    <node id="1067831434" type="priority" x="6405.53" y="10215.42" />
    <node id="1067831475" type="priority" x="6487.63" y="10010.25" />
    <node id="1067831554" type="priority" x="6409.76" y="9920.91" />
    <node id="1067831607" type="priority" x="6401.90" y="10196.54" />
    <node id="1067831628" type="priority" x="6315.76" y="9970.44" />
    <node id="1067831634" type="priority" x="6467.26" y="9994.05" />
    <node id="1067843062" type="priority" x="6387.08" y="10462.61" />
    <node id="1067843086" type="priority" x="6367.45" y="10419.79" />
    <node id="1067843187" type="priority" x="6245.40" y="10159.13" />
    <node id="1067889507" type="priority" x="9711.50" y="11422.26" />
    <node id="1067889509" type="priority" x="9122.04" y="11819.29" />
    <node id="1067889519" type="priority" x="9441.79" y="11384.69" />
    <node id="1067889521" type="priority" x="9426.93" y="11659.46" />
    <node id="1067889528" type="priority" x="9269.96" y="11590.70" />
    <node id="1067889530" type="priority" x="9159.55" y="11746.98" />
    <node id="1067889532" type="priority" x="9209.33" y="11883.07" />
    <node id="1067889566" type="priority" x="9301.90" y="11591.13" />
    <node id="1067889573" type="priority" x="9166.68" y="11756.41" />
    <node id="1067889587" type="priority" x="9475.58" y="11409.91" />
    <node id="1067889590" type="priority" x="9594.61" y="11687.22" />
    <node id="1067889599" type="priority" x="9234.48" y="11660.90" />
    <node id="1067889603" type="priority" x="9732.00" y="11454.39" />
    <node id="1067889614" tl="GS_1067889614" type="traffic_light" x="9695.13" y="11349.95" />
    <node id="1067889629" type="priority" x="9703.03" y="11371.25" />
    <node id="1067889637" type="priority" x="9184.86" y="11769.91" />
    <node id="1067889655" type="priority" x="9525.12" y="11304.68" />
    <node id="1067889659" type="priority" x="9360.13" y="11774.24" />
    <node id="1067889663" type="priority" x="9621.59" y="11375.31" />
    <node id="1067889671" type="priority" x="9478.73" y="11649.69" />
    <node id="1067889676" type="priority" x="9487.90" y="11711.87" />
    <node id="1067889686" type="priority" x="9292.17" y="11865.13" />
    <node id="1067889689" type="priority" x="9656.88" y="11435.00" />
    <node id="1067889698" type="priority" x="9371.75" y="11477.75" />
    <node id="1067889716" type="priority" x="9303.97" y="11611.54" />
    <node id="1067889718" type="priority" x="9375.21" y="11737.15" />
    <node id="1067889726" type="priority" x="9253.67" y="11675.10" />
    <node id="1067889729" type="priority" x="9229.50" y="11927.46" />
    <node id="1067889732" type="priority" x="9251.10" y="11637.51" />
    <node id="1067889735" type="priority" x="9387.12" y="11778.48" />
    <node id="1067889736" type="priority" x="9405.68" y="11502.94" />
    <node id="1067889741" type="priority" x="9483.53" y="11670.04" />
    <node id="1067889744" type="priority" x="9708.10" y="11435.29" />
    <node id="1067889749" type="priority" x="9792.27" y="11424.39" />
    <node id="1067889753" type="priority" x="9146.91" y="11784.26" />
    <node id="1067889759" type="priority" x="9303.68" y="11892.93" />
    <node id="1067889776" type="priority" x="9736.45" y="11500.20" />
    <node id="1067889778" type="priority" x="9638.98" y="11430.85" />
    <node id="1067889782" type="priority" x="9628.89" y="11359.91" />
    <node id="1067889785" type="priority" x="9744.49" y="11447.56" />
    <node id="1067913581" type="priority" x="8966.13" y="4305.25" />
    <node id="1067913585" type="priority" x="9377.23" y="4349.80" />
    <node id="1067913586" type="priority" x="8581.13" y="4309.73" />
    <node id="1067913614" type="priority" x="9182.84" y="4576.93" />
    <node id="1067913645" type="priority" x="9207.57" y="4668.42" />
    <node id="1067913686" type="priority" x="9156.56" y="4284.18" />
    <node id="1067913727" type="priority" x="8670.68" y="4249.99" />
    <node id="1067913728" type="priority" x="8872.39" y="4127.89" />
    <node id="1067913767" type="priority" x="9192.35" y="4375.07" />
    <node id="1067913813" type="priority" x="9016.49" y="4433.87" />
    <node id="1067913914" type="priority" x="9138.13" y="4237.35" />
    <node id="1067913933" type="priority" x="8911.86" y="4113.13" />
    <node id="1067913968" type="priority" x="8983.30" y="4349.46" />
    <node id="1067914047" type="priority" x="9430.04" y="4330.27" />
    <node id="1067937810" type="priority" x="8484.77" y="4327.88" />
    <node id="1067937982" type="priority" x="8531.09" y="4328.91" />
    <node id="1067947668" type="priority" x="8876.32" y="4891.02" />
    <node id="1067947673" type="priority" x="8972.62" y="4891.22" />
    <node id="1068269130" type="priority" x="7610.57" y="11037.87" />
    <node id="1068269158" type="priority" x="7577.11" y="11080.53" />
    <node id="1068326837" type="priority" x="7663.25" y="11164.43" />
    <node id="1068326841" type="priority" x="7670.21" y="11099.22" />
    <node id="1068326850" type="priority" x="7681.05" y="11194.61" />
    <node id="1068326854" type="priority" x="7604.17" y="11191.74" />
    <node id="1068379424" type="priority" x="7635.26" y="10981.74" />
    <node id="1068391829" type="priority" x="7399.81" y="10749.81" />
    <node id="1070236827" type="priority" x="7437.05" y="10614.65" />
    <node id="1070236892" type="priority" x="8331.84" y="15104.03" />
    <node id="1070236915" type="priority" x="8481.40" y="13056.47" />
    <node id="1070236975" type="priority" x="8312.67" y="15089.36" />
    <node id="1070236979" type="priority" x="7587.42" y="13930.47" />
    <node id="1070237005" type="priority" x="8281.95" y="15165.64" />
    <node id="1070237061" type="priority" x="7419.03" y="10649.22" />
    <node id="1078610628" type="priority" x="17487.08" y="2120.95" />
    <node id="1078610696" type="priority" x="17515.12" y="2079.52" />
    <node id="1078610744" type="priority" x="17505.18" y="2111.78" />
    <node id="1078610865" type="priority" x="17504.78" y="2115.02" />
    <node id="1078610891" type="priority" x="17315.79" y="2167.45" />
    <node id="1078610915" type="priority" x="17488.37" y="2102.35" />
    <node id="1078610929" type="priority" x="17302.22" y="2154.98" />
    <node id="1078610939" type="priority" x="17302.74" y="2159.07" />
    <node id="1083721076" type="priority" x="12139.66" y="6383.79" />
    <node id="108742238#1-AddedOnRampNode" type="priority" x="10488.49" y="9277.25" />
    <node id="1093874412" type="priority" x="4706.98" y="8252.76" />
    <node id="1093874437" type="priority" x="4752.48" y="8252.40" />
    <node id="1104444322" type="priority" x="3603.47" y="7808.10" />
    <node id="1104465871" type="priority" x="5679.56" y="7192.69" />
    <node id="1104465877" type="priority" x="5520.00" y="7239.50" />
    <node id="1104473880" type="priority" x="5156.59" y="7327.95" />
    <node id="1111319300" type="priority" x="6648.30" y="10925.46" />
    <node id="1111319323" type="priority" x="6719.13" y="10664.99" />
    <node id="1111319331" type="priority" x="6836.91" y="10738.26" />
    <node id="1111319374" type="priority" x="6814.82" y="10732.71" />
    <node id="1111319484" type="priority" x="6694.37" y="10925.47" />
    <node id="1111319502" type="priority" x="6663.44" y="10740.31" />
    <node id="1111454291" type="priority" x="6873.97" y="10598.51" />
    <node id="1111454405" type="priority" x="6883.07" y="10675.94" />
    <node id="1111454455" type="priority" x="6887.83" y="10588.31" />
    <node id="1111454500" type="priority" x="6954.36" y="10580.67" />
    <node id="1123096698" type="priority" x="9331.54" y="4920.61" />
    <node id="1123096701" type="priority" x="9359.28" y="5046.30" />
    <node id="1123096702" type="priority" x="9390.58" y="4933.14" />
    <node id="1123096706" type="priority" x="9313.92" y="5050.73" />
    <node id="1123096707" type="priority" x="9301.87" y="5039.72" />
    <node id="1123096713" type="priority" x="9296.04" y="4993.16" />
    <node id="1123097230" type="priority" x="12454.85" y="4540.51" />
    <node id="1123097235" type="priority" x="12769.98" y="4397.68" />
    <node id="112672265#3-AddedOffRampNode" type="priority" x="9821.85" y="8446.75" />
    <node id="112672267#0-AddedOffRampNode" type="priority" x="10815.66" y="8755.66" />
    <node id="112672695#8-AddedOffRampNode" type="priority" x="13189.52" y="5306.21" />
    <node id="1163010332" type="priority" x="8433.61" y="10922.13" />
    <node id="1163010438" type="priority" x="7662.64" y="10348.07" />