<?xml version='1.0' encoding='UTF-8'?>
<nodes xmlns:xsi="http://www.w3.org/2001/XMLSchema-instance" version="0.27" xsi:noNamespaceSchemaLocation="http://sumo.dlr.de/xsd/nodes_file.xsd">
    <location convBoundary="0.00,0.00,2000.00,2000.00" netOffset="-224973.31,-2700122.99" origBoundary="54.286966,24.391306,54.609531,24.591038" projParameter="+proj=utm +zone=40 +ellps=WGS84 +datum=WGS84 +units=m +no_defs" />

    <node avg_slowdown_ratio="0.269978401728" id="node_00x00" type="right_before_left" weight_num="2.0" weight_sum="0.539956803456" x="0.00" y="0.00" />
    <node avg_slowdown_ratio="0.252459803216" id="node_00x01" type="right_before_left" weight_num="3.0" weight_sum="0.757379409647" x="0.00" y="100.00" />
    <node avg_slowdown_ratio="0.275977921766" id="node_00x02" type="right_before_left" weight_num="3.0" weight_sum="0.827933765299" x="0.00" y="200.00" />
    <node avg_slowdown_ratio="0.251739860811" id="node_00x03" type="right_before_left" weight_num="3.0" weight_sum="0.755219582433" x="0.00" y="300.00" />
    <node avg_slowdown_ratio="0.260859131269" id="node_00x04" type="right_before_left" weight_num="3.0" weight_sum="0.782577393808" x="0.00" y="400.00" />
    <node avg_slowdown_ratio="0.255339572834" id="node_00x05" type="right_before_left" weight_num="3.0" weight_sum="0.766018718503" x="0.00" y="500.00" />
    <node avg_slowdown_ratio="0.241420686345" id="node_00x06" type="right_before_left" weight_num="3.0" weight_sum="0.724262059035" x="0.00" y="600.00" />
    <node avg_slowdown_ratio="0.242380609551" id="node_00x07" type="right_before_left" weight_num="3.0" weight_sum="0.727141828653" x="0.00" y="700.00" />
    <node avg_slowdown_ratio="0.238300935925" id="node_00x08" type="right_before_left" weight_num="3.0" weight_sum="0.714902807775" x="0.00" y="800.00" />
    <node avg_slowdown_ratio="0.234461243101" id="node_00x09" type="right_before_left" weight_num="3.0" weight_sum="0.703383729302" x="0.00" y="900.00" />
    <node avg_slowdown_ratio="0.239260859131" id="node_00x10" type="right_before_left" weight_num="3.0" weight_sum="0.717782577393" x="0.00" y="1000.00" />
    <node avg_slowdown_ratio="0.223182145429" id="node_00x11" type="right_before_left" weight_num="3.0" weight_sum="0.669546436286" x="0.00" y="1100.00" />
    <node avg_slowdown_ratio="0.231341492681" id="node_00x12" type="right_before_left" weight_num="3.0" weight_sum="0.694024478042" x="0.00" y="1200.00" />
    <node avg_slowdown_ratio="0.255579553636" id="node_00x13" type="right_before_left" weight_num="3.0" weight_sum="0.766738660907" x="0.00" y="1300.00" />
    <node avg_slowdown_ratio="0.22342212623" id="node_00x14" type="right_before_left" weight_num="3.0" weight_sum="0.67026637869" x="0.00" y="1400.00" />
    <node avg_slowdown_ratio="0.264218862491" id="node_00x15" type="right_before_left" weight_num="3.0" weight_sum="0.792656587473" x="0.00" y="1500.00" />
    <node avg_slowdown_ratio="0.241660667147" id="node_00x16" type="right_before_left" weight_num="3.0" weight_sum="0.72498200144" x="0.00" y="1600.00" />
    <node avg_slowdown_ratio="0.245020398368" id="node_00x17" type="right_before_left" weight_num="3.0" weight_sum="0.735061195104" x="0.00" y="1700.00" />
    <node avg_slowdown_ratio="0.244300455964" id="node_00x18" type="right_before_left" weight_num="3.0" weight_sum="0.732901367891" x="0.00" y="1800.00" />
    <node avg_slowdown_ratio="0.243580513559" id="node_00x19" type="right_before_left" weight_num="3.0" weight_sum="0.730741540677" x="0.00" y="1900.00" />
    <node avg_slowdown_ratio="0.194024478042" id="node_00x20" type="right_before_left" weight_num="2.0" weight_sum="0.388048956084" x="0.00" y="2000.00" />
    <node avg_slowdown_ratio="0.268058555315" id="node_01x00" type="right_before_left" weight_num="3.0" weight_sum="0.804175665946" x="100.00" y="0.00" />
    <node avg_slowdown_ratio="0.256479481643" id="node_01x01" type="right_before_left" weight_num="4.0" weight_sum="1.02591792657" x="100.00" y="100.00" />
    <node avg_slowdown_ratio="0.255759539237" id="node_01x02" type="right_before_left" weight_num="4.0" weight_sum="1.02303815695" x="100.00" y="200.00" />
    <node avg_slowdown_ratio="0.241900647948" id="node_01x03" type="right_before_left" weight_num="4.0" weight_sum="0.967602591794" x="100.00" y="300.00" />
    <node avg_slowdown_ratio="0.241000719942" id="node_01x04" type="right_before_left" weight_num="4.0" weight_sum="0.964002879769" x="100.00" y="400.00" />
    <node avg_slowdown_ratio="0.2656587473" id="node_01x05" type="right_before_left" weight_num="4.0" weight_sum="1.0626349892" x="100.00" y="500.00" />
    <node avg_slowdown_ratio="0.266018718502" id="node_01x06" type="right_before_left" weight_num="4.0" weight_sum="1.06407487401" x="100.00" y="600.00" />
    <node avg_slowdown_ratio="0.262958963283" id="node_01x07" type="right_before_left" weight_num="4.0" weight_sum="1.05183585313" x="100.00" y="700.00" />
    <node avg_slowdown_ratio="0.258639308855" id="node_01x08" type="right_before_left" weight_num="4.0" weight_sum="1.03455723542" x="100.00" y="800.00" />
    <node avg_slowdown_ratio="0.264398848093" id="node_01x09" type="right_before_left" weight_num="4.0" weight_sum="1.05759539237" x="100.00" y="900.00" />
    <node avg_slowdown_ratio="0.27357811375" id="node_01x10" type="right_before_left" weight_num="4.0" weight_sum="1.094312455" x="100.00" y="1000.00" />
    <node avg_slowdown_ratio="0.259899208062" id="node_01x11" type="right_before_left" weight_num="4.0" weight_sum="1.03959683225" x="100.00" y="1100.00" />
    <node avg_slowdown_ratio="0.255939524837" id="node_01x12" type="right_before_left" weight_num="4.0" weight_sum="1.02375809935" x="100.00" y="1200.00" />
    <node avg_slowdown_ratio="0.24694024478" id="node_01x13" type="right_before_left" weight_num="4.0" weight_sum="0.987760979121" x="100.00" y="1300.00" />
    <node avg_slowdown_ratio="0.253959683225" id="node_01x14" type="right_before_left" weight_num="4.0" weight_sum="1.0158387329" x="100.00" y="1400.00" />
    <node avg_slowdown_ratio="0.244960403168" id="node_01x15" type="right_before_left" weight_num="4.0" weight_sum="0.979841612671" x="100.00" y="1500.00" />
    <node avg_slowdown_ratio="0.246400287977" id="node_01x16" type="right_before_left" weight_num="4.0" weight_sum="0.985601151908" x="100.00" y="1600.00" />
    <node avg_slowdown_ratio="0.247480201584" id="node_01x17" type="right_before_left" weight_num="4.0" weight_sum="0.989920806335" x="100.00" y="1700.00" />
    <node avg_slowdown_ratio="0.261699064075" id="node_01x18" type="right_before_left" weight_num="4.0" weight_sum="1.0467962563" x="100.00" y="1800.00" />
    <node avg_slowdown_ratio="0.24838012959" id="node_01x19" type="right_before_left" weight_num="4.0" weight_sum="0.993520518358" x="100.00" y="1900.00" />
    <node avg_slowdown_ratio="0.262059035277" id="node_01x20" type="right_before_left" weight_num="3.0" weight_sum="0.786177105832" x="100.00" y="2000.00" />
    <node avg_slowdown_ratio="0.256779457643" id="node_02x00" type="right_before_left" weight_num="3.0" weight_sum="0.77033837293" x="200.00" y="0.00" />
    <node avg_slowdown_ratio="0.244960403168" id="node_02x01" type="right_before_left" weight_num="4.0" weight_sum="0.979841612672" x="200.00" y="100.00" />
    <node avg_slowdown_ratio="0.247480201584" id="node_02x02" type="right_before_left" weight_num="4.0" weight_sum="0.989920806335" x="200.00" y="200.00" />
    <node avg_slowdown_ratio="0.241000719943" id="node_02x03" type="right_before_left" weight_num="4.0" weight_sum="0.964002879771" x="200.00" y="300.00" />
    <node avg_slowdown_ratio="0.257379409648" id="node_02x04" type="right_before_left" weight_num="4.0" weight_sum="1.02951763859" x="200.00" y="400.00" />
    <node avg_slowdown_ratio="0.26421886249" id="node_02x05" type="right_before_left" weight_num="4.0" weight_sum="1.05687544996" x="200.00" y="500.00" />
    <node avg_slowdown_ratio="0.269078473722" id="node_02x06" type="right_before_left" weight_num="4.0" weight_sum="1.07631389489" x="200.00" y="600.00" />
    <node avg_slowdown_ratio="0.286537077032" id="node_02x07" type="right_before_left" weight_num="4.0" weight_sum="1.14614830813" x="200.00" y="700.00" />
    <node avg_slowdown_ratio="0.258819294458" id="node_02x08" type="right_before_left" weight_num="4.0" weight_sum="1.03527717783" x="200.00" y="800.00" />
    <node avg_slowdown_ratio="0.26079913607" id="node_02x09" type="right_before_left" weight_num="4.0" weight_sum="1.04319654428" x="200.00" y="900.00" />
    <node avg_slowdown_ratio="0.283477321815" id="node_02x10" type="right_before_left" weight_num="4.0" weight_sum="1.13390928726" x="200.00" y="1000.00" />
    <node avg_slowdown_ratio="0.273758099353" id="node_02x11" type="right_before_left" weight_num="4.0" weight_sum="1.09503239741" x="200.00" y="1100.00" />
    <node avg_slowdown_ratio="0.2656587473" id="node_02x12" type="right_before_left" weight_num="4.0" weight_sum="1.0626349892" x="200.00" y="1200.00" />
    <node avg_slowdown_ratio="0.253419726422" id="node_02x13" type="right_before_left" weight_num="4.0" weight_sum="1.01367890569" x="200.00" y="1300.00" />
    <node avg_slowdown_ratio="0.26709863211" id="node_02x14" type="right_before_left" weight_num="4.0" weight_sum="1.06839452844" x="200.00" y="1400.00" />
    <node avg_slowdown_ratio="0.258279337652" id="node_02x15" type="right_before_left" weight_num="4.0" weight_sum="1.03311735061" x="200.00" y="1500.00" />
    <node avg_slowdown_ratio="0.26727861771" id="node_02x16" type="right_before_left" weight_num="4.0" weight_sum="1.06911447084" x="200.00" y="1600.00" />
    <node avg_slowdown_ratio="0.256479481643" id="node_02x17" type="right_before_left" weight_num="4.0" weight_sum="1.02591792657" x="200.00" y="1700.00" />
    <node avg_slowdown_ratio="0.242620590353" id="node_02x18" type="right_before_left" weight_num="4.0" weight_sum="0.970482361412" x="200.00" y="1800.00" />
    <node avg_slowdown_ratio="0.239560835133" id="node_02x19" type="right_before_left" weight_num="4.0" weight_sum="0.958243340533" x="200.00" y="1900.00" />
    <node avg_slowdown_ratio="0.257979361651" id="node_02x20" type="right_before_left" weight_num="3.0" weight_sum="0.773938084954" x="200.00" y="2000.00" />
    <node avg_slowdown_ratio="0.251739860811" id="node_03x00" type="right_before_left" weight_num="3.0" weight_sum="0.755219582433" x="300.00" y="0.00" />
    <node avg_slowdown_ratio="0.250359971202" id="node_03x01" type="right_before_left" weight_num="4.0" weight_sum="1.00143988481" x="300.00" y="100.00" />
    <node avg_slowdown_ratio="0.258819294458" id="node_03x02" type="right_before_left" weight_num="4.0" weight_sum="1.03527717783" x="300.00" y="200.00" />
    <node avg_slowdown_ratio="0.261519078472" id="node_03x03" type="right_before_left" weight_num="4.0" weight_sum="1.04607631389" x="300.00" y="300.00" />
    <node avg_slowdown_ratio="0.254499640027" id="node_03x04" type="right_before_left" weight_num="4.0" weight_sum="1.01799856011" x="300.00" y="400.00" />
    <node avg_slowdown_ratio="0.26259899208" id="node_03x05" type="right_before_left" weight_num="4.0" weight_sum="1.05039596832" x="300.00" y="500.00" />
    <node avg_slowdown_ratio="0.283477321815" id="node_03x06" type="right_before_left" weight_num="4.0" weight_sum="1.13390928726" x="300.00" y="600.00" />
    <node avg_slowdown_ratio="0.260619150468" id="node_03x07" type="right_before_left" weight_num="4.0" weight_sum="1.04247660187" x="300.00" y="700.00" />
    <node avg_slowdown_ratio="0.266378689705" id="node_03x08" type="right_before_left" weight_num="4.0" weight_sum="1.06551475882" x="300.00" y="800.00" />
    <node avg_slowdown_ratio="0.247300215983" id="node_03x09" type="right_before_left" weight_num="4.0" weight_sum="0.989200863931" x="300.00" y="900.00" />
    <node avg_slowdown_ratio="0.274838012957" id="node_03x10" type="right_before_left" weight_num="4.0" weight_sum="1.09935205183" x="300.00" y="1000.00" />
    <node avg_slowdown_ratio="0.27015838733" id="node_03x11" type="right_before_left" weight_num="4.0" weight_sum="1.08063354932" x="300.00" y="1100.00" />
    <node avg_slowdown_ratio="0.288156947445" id="node_03x12" type="right_before_left" weight_num="4.0" weight_sum="1.15262778978" x="300.00" y="1200.00" />
    <node avg_slowdown_ratio="0.27663786897" id="node_03x13" type="right_before_left" weight_num="4.0" weight_sum="1.10655147588" x="300.00" y="1300.00" />
    <node avg_slowdown_ratio="0.274478041758" id="node_03x14" type="right_before_left" weight_num="4.0" weight_sum="1.09791216703" x="300.00" y="1400.00" />
    <node avg_slowdown_ratio="0.270878329735" id="node_03x15" type="right_before_left" weight_num="4.0" weight_sum="1.08351331894" x="300.00" y="1500.00" />
    <node avg_slowdown_ratio="0.27015838733" id="node_03x16" type="right_before_left" weight_num="4.0" weight_sum="1.08063354932" x="300.00" y="1600.00" />
    <node avg_slowdown_ratio="0.255939524837" id="node_03x17" type="right_before_left" weight_num="4.0" weight_sum="1.02375809935" x="300.00" y="1700.00" />
    <node avg_slowdown_ratio="0.249820014399" id="node_03x18" type="right_before_left" weight_num="4.0" weight_sum="0.999280057596" x="300.00" y="1800.00" />
    <node avg_slowdown_ratio="0.25773938085" id="node_03x19" type="right_before_left" weight_num="4.0" weight_sum="1.0309575234" x="300.00" y="1900.00" />
    <node avg_slowdown_ratio="0.233021358291" id="node_03x20" type="right_before_left" weight_num="3.0" weight_sum="0.699064074874" x="300.00" y="2000.00" />
    <node avg_slowdown_ratio="0.233021358291" id="node_04x00" type="right_before_left" weight_num="3.0" weight_sum="0.699064074874" x="400.00" y="0.00" />
    <node avg_slowdown_ratio="0.248920086393" id="node_04x01" type="right_before_left" weight_num="4.0" weight_sum="0.995680345572" x="400.00" y="100.00" />
    <node avg_slowdown_ratio="0.261879049675" id="node_04x02" type="right_before_left" weight_num="4.0" weight_sum="1.0475161987" x="400.00" y="200.00" />
    <node avg_slowdown_ratio="0.25449964003" id="node_04x03" type="right_before_left" weight_num="4.0" weight_sum="1.01799856012" x="400.00" y="300.00" />
    <node avg_slowdown_ratio="0.256479481643" id="node_04x04" type="right_before_left" weight_num="4.0" weight_sum="1.02591792657" x="400.00" y="400.00" />
    <node avg_slowdown_ratio="0.266918646508" id="node_04x05" type="right_before_left" weight_num="4.0" weight_sum="1.06767458603" x="400.00" y="500.00" />
    <node avg_slowdown_ratio="0.283657307415" id="node_04x06" type="right_before_left" weight_num="4.0" weight_sum="1.13462922966" x="400.00" y="600.00" />
    <node avg_slowdown_ratio="0.25467962563" id="node_04x07" type="right_before_left" weight_num="4.0" weight_sum="1.01871850252" x="400.00" y="700.00" />
    <node avg_slowdown_ratio="0.27969762419" id="node_04x08" type="right_before_left" weight_num="4.0" weight_sum="1.11879049676" x="400.00" y="800.00" />
    <node avg_slowdown_ratio="0.261699064075" id="node_04x09" type="right_before_left" weight_num="4.0" weight_sum="1.0467962563" x="400.00" y="900.00" />
    <node avg_slowdown_ratio="0.282217422605" id="node_04x10" type="right_before_left" weight_num="4.0" weight_sum="1.12886969042" x="400.00" y="1000.00" />
    <node avg_slowdown_ratio="0.27051835853" id="node_04x11" type="right_before_left" weight_num="4.0" weight_sum="1.08207343412" x="400.00" y="1100.00" />
    <node avg_slowdown_ratio="0.277897768178" id="node_04x12" type="right_before_left" weight_num="4.0" weight_sum="1.11159107271" x="400.00" y="1200.00" />
    <node avg_slowdown_ratio="0.26709863211" id="node_04x13" type="right_before_left" weight_num="4.0" weight_sum="1.06839452844" x="400.00" y="1300.00" />
    <node avg_slowdown_ratio="0.28581713463" id="node_04x14" type="right_before_left" weight_num="4.0" weight_sum="1.14326853852" x="400.00" y="1400.00" />
    <node avg_slowdown_ratio="0.262059035278" id="node_04x15" type="right_before_left" weight_num="4.0" weight_sum="1.04823614111" x="400.00" y="1500.00" />
    <node avg_slowdown_ratio="0.276097912168" id="node_04x16" type="right_before_left" weight_num="4.0" weight_sum="1.10439164867" x="400.00" y="1600.00" />
    <node avg_slowdown_ratio="0.253419726422" id="node_04x17" type="right_before_left" weight_num="4.0" weight_sum="1.01367890569" x="400.00" y="1700.00" />
    <node avg_slowdown_ratio="0.265118790497" id="node_04x18" type="right_before_left" weight_num="4.0" weight_sum="1.06047516199" x="400.00" y="1800.00" />
    <node avg_slowdown_ratio="0.242440604752" id="node_04x19" type="right_before_left" weight_num="4.0" weight_sum="0.969762419006" x="400.00" y="1900.00" />
    <node avg_slowdown_ratio="0.240460763139" id="node_04x20" type="right_before_left" weight_num="3.0" weight_sum="0.721382289417" x="400.00" y="2000.00" />
    <node avg_slowdown_ratio="0.244540436765" id="node_05x00" type="right_before_left" weight_num="3.0" weight_sum="0.733621310295" x="500.00" y="0.00" />
    <node avg_slowdown_ratio="0.258459323255" id="node_05x01" type="right_before_left" weight_num="4.0" weight_sum="1.03383729302" x="500.00" y="100.00" />
    <node avg_slowdown_ratio="0.276817854573" id="node_05x02" type="right_before_left" weight_num="4.0" weight_sum="1.10727141829" x="500.00" y="200.00" />
    <node avg_slowdown_ratio="0.267458603312" id="node_05x03" type="right_before_left" weight_num="4.0" weight_sum="1.06983441325" x="500.00" y="300.00" />
    <node avg_slowdown_ratio="0.284197264218" id="node_05x04" type="right_before_left" weight_num="4.0" weight_sum="1.13678905687" x="500.00" y="400.00" />
    <node avg_slowdown_ratio="0.280237580993" id="node_05x05" type="right_before_left" weight_num="4.0" weight_sum="1.12095032397" x="500.00" y="500.00" />
    <node avg_slowdown_ratio="0.29355651548" id="node_05x06" type="right_before_left" weight_num="4.0" weight_sum="1.17422606192" x="500.00" y="600.00" />
    <node avg_slowdown_ratio="0.27825773938" id="node_05x07" type="right_before_left" weight_num="4.0" weight_sum="1.11303095752" x="500.00" y="700.00" />
    <node avg_slowdown_ratio="0.265298776098" id="node_05x08" type="right_before_left" weight_num="4.0" weight_sum="1.06119510439" x="500.00" y="800.00" />
    <node avg_slowdown_ratio="0.278437724983" id="node_05x09" type="right_before_left" weight_num="4.0" weight_sum="1.11375089993" x="500.00" y="900.00" />
    <node avg_slowdown_ratio="0.278617710583" id="node_05x10" type="right_before_left" weight_num="4.0" weight_sum="1.11447084233" x="500.00" y="1000.00" />
    <node avg_slowdown_ratio="0.282397408207" id="node_05x11" type="right_before_left" weight_num="4.0" weight_sum="1.12958963283" x="500.00" y="1100.00" />
    <node avg_slowdown_ratio="0.286717062635" id="node_05x12" type="right_before_left" weight_num="4.0" weight_sum="1.14686825054" x="500.00" y="1200.00" />
    <node avg_slowdown_ratio="0.280417566595" id="node_05x13" type="right_before_left" weight_num="4.0" weight_sum="1.12167026638" x="500.00" y="1300.00" />
    <node avg_slowdown_ratio="0.287796976243" id="node_05x14" type="right_before_left" weight_num="4.0" weight_sum="1.15118790497" x="500.00" y="1400.00" />
    <node avg_slowdown_ratio="0.27825773938" id="node_05x15" type="right_before_left" weight_num="4.0" weight_sum="1.11303095752" x="500.00" y="1500.00" />
    <node avg_slowdown_ratio="0.262958963283" id="node_05x16" type="right_before_left" weight_num="4.0" weight_sum="1.05183585313" x="500.00" y="1600.00" />
    <node avg_slowdown_ratio="0.26079913607" id="node_05x17" type="right_before_left" weight_num="4.0" weight_sum="1.04319654428" x="500.00" y="1700.00" />
    <node avg_slowdown_ratio="0.256479481643" id="node_05x18" type="right_before_left" weight_num="4.0" weight_sum="1.02591792657" x="500.00" y="1800.00" />
    <node avg_slowdown_ratio="0.249820014399" id="node_05x19" type="right_before_left" weight_num="4.0" weight_sum="0.999280057595" x="500.00" y="1900.00" />
    <node avg_slowdown_ratio="0.244060475162" id="node_05x20" type="right_before_left" weight_num="3.0" weight_sum="0.732181425486" x="500.00" y="2000.00" />
    <node avg_slowdown_ratio="0.246700263979" id="node_06x00" type="right_before_left" weight_num="3.0" weight_sum="0.740100791937" x="600.00" y="0.00" />
    <node avg_slowdown_ratio="0.251979841612" id="node_06x01" type="right_before_left" weight_num="4.0" weight_sum="1.00791936645" x="600.00" y="100.00" />
    <node avg_slowdown_ratio="0.259899208062" id="node_06x02" type="right_before_left" weight_num="4.0" weight_sum="1.03959683225" x="600.00" y="200.00" />
    <node avg_slowdown_ratio="0.26403887689" id="node_06x03" type="right_before_left" weight_num="4.0" weight_sum="1.05615550756" x="600.00" y="300.00" />
    <node avg_slowdown_ratio="0.27807775378" id="node_06x04" type="right_before_left" weight_num="4.0" weight_sum="1.11231101512" x="600.00" y="400.00" />
    <node avg_slowdown_ratio="0.296436285097" id="node_06x05" type="right_before_left" weight_num="4.0" weight_sum="1.18574514039" x="600.00" y="500.00" />
    <node avg_slowdown_ratio="0.29517638589" id="node_06x06" type="right_before_left" weight_num="4.0" weight_sum="1.18070554356" x="600.00" y="600.00" />
    <node avg_slowdown_ratio="0.288876889847" id="node_06x07" type="right_before_left" weight_num="4.0" weight_sum="1.15550755939" x="600.00" y="700.00" />
    <node avg_slowdown_ratio="0.263318934485" id="node_06x08" type="right_before_left" weight_num="4.0" weight_sum="1.05327573794" x="600.00" y="800.00" />
    <node avg_slowdown_ratio="0.283477321815" id="node_06x09" type="right_before_left" weight_num="4.0" weight_sum="1.13390928726" x="600.00" y="900.00" />
    <node avg_slowdown_ratio="0.279337652988" id="node_06x10" type="right_before_left" weight_num="4.0" weight_sum="1.11735061195" x="600.00" y="1000.00" />
    <node avg_slowdown_ratio="0.282037437005" id="node_06x11" type="right_before_left" weight_num="4.0" weight_sum="1.12814974802" x="600.00" y="1100.00" />
    <node avg_slowdown_ratio="0.302555795538" id="node_06x12" type="right_before_left" weight_num="4.0" weight_sum="1.21022318215" x="600.00" y="1200.00" />
    <node avg_slowdown_ratio="0.29211663067" id="node_06x13" type="right_before_left" weight_num="4.0" weight_sum="1.16846652268" x="600.00" y="1300.00" />
    <node avg_slowdown_ratio="0.301115910727" id="node_06x14" type="right_before_left" weight_num="4.0" weight_sum="1.20446364291" x="600.00" y="1400.00" />
    <node avg_slowdown_ratio="0.305075593953" id="node_06x15" type="right_before_left" weight_num="4.0" weight_sum="1.22030237581" x="600.00" y="1500.00" />
    <node avg_slowdown_ratio="0.277357811375" id="node_06x16" type="right_before_left" weight_num="4.0" weight_sum="1.1094312455" x="600.00" y="1600.00" />
    <node avg_slowdown_ratio="0.252339812815" id="node_06x17" type="right_before_left" weight_num="4.0" weight_sum="1.00935925126" x="600.00" y="1700.00" />
    <node avg_slowdown_ratio="0.269438444925" id="node_06x18" type="right_before_left" weight_num="4.0" weight_sum="1.0777537797" x="600.00" y="1800.00" />
    <node avg_slowdown_ratio="0.246040316775" id="node_06x19" type="right_before_left" weight_num="4.0" weight_sum="0.984161267098" x="600.00" y="1900.00" />
    <node avg_slowdown_ratio="0.2500599952" id="node_06x20" type="right_before_left" weight_num="3.0" weight_sum="0.7501799856" x="600.00" y="2000.00" />
    <node avg_slowdown_ratio="0.239260859131" id="node_07x00" type="right_before_left" weight_num="3.0" weight_sum="0.717782577394" x="700.00" y="0.00" />
    <node avg_slowdown_ratio="0.248560115191" id="node_07x01" type="right_before_left" weight_num="4.0" weight_sum="0.994240460764" x="700.00" y="100.00" />
    <node avg_slowdown_ratio="0.258279337652" id="node_07x02" type="right_before_left" weight_num="4.0" weight_sum="1.03311735061" x="700.00" y="200.00" />
    <node avg_slowdown_ratio="0.267998560115" id="node_07x03" type="right_before_left" weight_num="4.0" weight_sum="1.07199424046" x="700.00" y="300.00" />
    <node avg_slowdown_ratio="0.283297336212" id="node_07x04" type="right_before_left" weight_num="4.0" weight_sum="1.13318934485" x="700.00" y="400.00" />
    <node avg_slowdown_ratio="0.280777537797" id="node_07x05" type="right_before_left" weight_num="4.0" weight_sum="1.12311015119" x="700.00" y="500.00" />
    <node avg_slowdown_ratio="0.290136789058" id="node_07x06" type="right_before_left" weight_num="4.0" weight_sum="1.16054715623" x="700.00" y="600.00" />
    <node avg_slowdown_ratio="0.273218142547" id="node_07x07" type="right_before_left" weight_num="4.0" weight_sum="1.09287257019" x="700.00" y="700.00" />
    <node avg_slowdown_ratio="0.288516918648" id="node_07x08" type="right_before_left" weight_num="4.0" weight_sum="1.15406767459" x="700.00" y="800.00" />
    <node avg_slowdown_ratio="0.287796976243" id="node_07x09" type="right_before_left" weight_num="4.0" weight_sum="1.15118790497" x="700.00" y="900.00" />
    <node avg_slowdown_ratio="0.28455723542" id="node_07x10" type="right_before_left" weight_num="4.0" weight_sum="1.13822894168" x="700.00" y="1000.00" />
    <node avg_slowdown_ratio="0.303455723542" id="node_07x11" type="right_before_left" weight_num="4.0" weight_sum="1.21382289417" x="700.00" y="1100.00" />
    <node avg_slowdown_ratio="0.304535637147" id="node_07x12" type="right_before_left" weight_num="4.0" weight_sum="1.21814254859" x="700.00" y="1200.00" />
    <node avg_slowdown_ratio="0.280597552195" id="node_07x13" type="right_before_left" weight_num="4.0" weight_sum="1.12239020878" x="700.00" y="1300.00" />
    <node avg_slowdown_ratio="0.305975521957" id="node_07x14" type="right_before_left" weight_num="4.0" weight_sum="1.22390208783" x="700.00" y="1400.00" />
    <node avg_slowdown_ratio="0.27483801296" id="node_07x15" type="right_before_left" weight_num="4.0" weight_sum="1.09935205184" x="700.00" y="1500.00" />
    <node avg_slowdown_ratio="0.267998560115" id="node_07x16" type="right_before_left" weight_num="4.0" weight_sum="1.07199424046" x="700.00" y="1600.00" />
    <node avg_slowdown_ratio="0.259899208062" id="node_07x17" type="right_before_left" weight_num="4.0" weight_sum="1.03959683225" x="700.00" y="1700.00" />
    <node avg_slowdown_ratio="0.265118790497" id="node_07x18" type="right_before_left" weight_num="4.0" weight_sum="1.06047516199" x="700.00" y="1800.00" />
    <node avg_slowdown_ratio="0.262778977683" id="node_07x19" type="right_before_left" weight_num="4.0" weight_sum="1.05111591073" x="700.00" y="1900.00" />
    <node avg_slowdown_ratio="0.228701703864" id="node_07x20" type="right_before_left" weight_num="3.0" weight_sum="0.686105111591" x="700.00" y="2000.00" />
    <node avg_slowdown_ratio="0.251019918406" id="node_08x00" type="right_before_left" weight_num="3.0" weight_sum="0.753059755219" x="800.00" y="0.00" />
    <node avg_slowdown_ratio="0.257379409648" id="node_08x01" type="right_before_left" weight_num="4.0" weight_sum="1.02951763859" x="800.00" y="100.00" />
    <node avg_slowdown_ratio="0.256659467242" id="node_08x02" type="right_before_left" weight_num="4.0" weight_sum="1.02663786897" x="800.00" y="200.00" />
    <node avg_slowdown_ratio="0.267638588912" id="node_08x03" type="right_before_left" weight_num="4.0" weight_sum="1.07055435565" x="800.00" y="300.00" />
    <node avg_slowdown_ratio="0.290316774657" id="node_08x04" type="right_before_left" weight_num="4.0" weight_sum="1.16126709863" x="800.00" y="400.00" />
    <node avg_slowdown_ratio="0.286897048238" id="node_08x05" type="right_before_left" weight_num="4.0" weight_sum="1.14758819295" x="800.00" y="500.00" />
    <node avg_slowdown_ratio="0.308675305975" id="node_08x06" type="right_before_left" weight_num="4.0" weight_sum="1.2347012239" x="800.00" y="600.00" />
    <node avg_slowdown_ratio="0.282037437005" id="node_08x07" type="right_before_left" weight_num="4.0" weight_sum="1.12814974802" x="800.00" y="700.00" />
    <node avg_slowdown_ratio="0.29229661627" id="node_08x08" type="right_before_left" weight_num="4.0" weight_sum="1.16918646508" x="800.00" y="800.00" />
    <node avg_slowdown_ratio="0.288516918648" id="node_08x09" type="right_before_left" weight_num="4.0" weight_sum="1.15406767459" x="800.00" y="900.00" />
    <node avg_slowdown_ratio="0.299136069115" id="node_08x10" type="right_before_left" weight_num="4.0" weight_sum="1.19654427646" x="800.00" y="1000.00" />
    <node avg_slowdown_ratio="0.30471562275" id="node_08x11" type="right_before_left" weight_num="4.0" weight_sum="1.218862491" x="800.00" y="1100.00" />
    <node avg_slowdown_ratio="0.29535637149" id="node_08x12" type="right_before_left" weight_num="4.0" weight_sum="1.18142548596" x="800.00" y="1200.00" />
    <node avg_slowdown_ratio="0.287257019437" id="node_08x13" type="right_before_left" weight_num="4.0" weight_sum="1.14902807775" x="800.00" y="1300.00" />
    <node avg_slowdown_ratio="0.287796976243" id="node_08x14" type="right_before_left" weight_num="4.0" weight_sum="1.15118790497" x="800.00" y="1400.00" />
    <node avg_slowdown_ratio="0.26403887689" id="node_08x15" type="right_before_left" weight_num="4.0" weight_sum="1.05615550756" x="800.00" y="1500.00" />
    <node avg_slowdown_ratio="0.272678185745" id="node_08x16" type="right_before_left" weight_num="4.0" weight_sum="1.09071274298" x="800.00" y="1600.00" />
    <node avg_slowdown_ratio="0.25953923686" id="node_08x17" type="right_before_left" weight_num="4.0" weight_sum="1.03815694744" x="800.00" y="1700.00" />
    <node avg_slowdown_ratio="0.258099352053" id="node_08x18" type="right_before_left" weight_num="4.0" weight_sum="1.03239740821" x="800.00" y="1800.00" />
    <node avg_slowdown_ratio="0.25323974082" id="node_08x19" type="right_before_left" weight_num="4.0" weight_sum="1.01295896328" x="800.00" y="1900.00" />