<?xml version='1.0' encoding='UTF-8'?>
<nodes xmlns:xsi="http://www.w3.org/2001/XMLSchema-instance" version="0.27" xsi:noNamespaceSchemaLocation="http://sumo.dlr.de/xsd/nodes_file.xsd">
    <location convBoundary="0.00,0.00,2000.00,2000.00" netOffset="-224973.31,-2700122.99" origBoundary="54.286966,24.391306,54.609531,24.591038" projParameter="+proj=utm +zone=40 +ellps=WGS84 +datum=WGS84 +units=m +no_defs" />

    <node avg_slowdown_ratio="0.268538516919" id="node_00x00" type="right_before_left" weight_num="2.0" weight_sum="0.537077033838" x="0.00" y="0.00" />
    <node avg_slowdown_ratio="0.260379169667" id="node_00x01" type="right_before_left" weight_num="3.0" weight_sum="0.781137509" x="0.00" y="100.00" />
    <node avg_slowdown_ratio="0.252459803216" id="node_00x02" type="right_before_left" weight_num="3.0" weight_sum="0.757379409647" x="0.00" y="200.00" />
    <node avg_slowdown_ratio="0.252459803216" id="node_00x03" type="right_before_left" weight_num="3.0" weight_sum="0.757379409647" x="0.00" y="300.00" />
    <node avg_slowdown_ratio="0.249820014399" id="node_00x04" type="right_before_left" weight_num="3.0" weight_sum="0.749460043196" x="0.00" y="400.00" />
    <node avg_slowdown_ratio="0.238540916727" id="node_00x05" type="right_before_left" weight_num="3.0" weight_sum="0.71562275018" x="0.00" y="500.00" />
    <node avg_slowdown_ratio="0.255819534437" id="node_00x06" type="right_before_left" weight_num="3.0" weight_sum="0.767458603311" x="0.00" y="600.00" />
    <node avg_slowdown_ratio="0.257019438445" id="node_00x07" type="right_before_left" weight_num="3.0" weight_sum="0.771058315334" x="0.00" y="700.00" />
    <node avg_slowdown_ratio="0.254379649628" id="node_00x08" type="right_before_left" weight_num="3.0" weight_sum="0.763138948884" x="0.00" y="800.00" />
    <node avg_slowdown_ratio="0.253419726422" id="node_00x09" type="right_before_left" weight_num="3.0" weight_sum="0.760259179266" x="0.00" y="900.00" />
    <node avg_slowdown_ratio="0.276937844972" id="node_00x10" type="right_before_left" weight_num="3.0" weight_sum="0.830813534917" x="0.00" y="1000.00" />
    <node avg_slowdown_ratio="0.263498920086" id="node_00x11" type="right_before_left" weight_num="3.0" weight_sum="0.790496760259" x="0.00" y="1100.00" />
    <node avg_slowdown_ratio="0.267338612911" id="node_00x12" type="right_before_left" weight_num="3.0" weight_sum="0.802015838733" x="0.00" y="1200.00" />
    <node avg_slowdown_ratio="0.257979361651" id="node_00x13" type="right_before_left" weight_num="3.0" weight_sum="0.773938084954" x="0.00" y="1300.00" />
    <node avg_slowdown_ratio="0.269738420926" id="node_00x14" type="right_before_left" weight_num="3.0" weight_sum="0.809215262779" x="0.00" y="1400.00" />
    <node avg_slowdown_ratio="0.264938804896" id="node_00x15" type="right_before_left" weight_num="3.0" weight_sum="0.794816414687" x="0.00" y="1500.00" />
    <node avg_slowdown_ratio="0.241180705543" id="node_00x16" type="right_before_left" weight_num="3.0" weight_sum="0.72354211663" x="0.00" y="1600.00" />
    <node avg_slowdown_ratio="0.26397888169" id="node_00x17" type="right_before_left" weight_num="3.0" weight_sum="0.791936645069" x="0.00" y="1700.00" />
    <node avg_slowdown_ratio="0.263258939285" id="node_00x18" type="right_before_left" weight_num="3.0" weight_sum="0.789776817855" x="0.00" y="1800.00" />
    <node avg_slowdown_ratio="0.246220302376" id="node_00x19" type="right_before_left" weight_num="3.0" weight_sum="0.738660907127" x="0.00" y="1900.00" />
    <node avg_slowdown_ratio="0.231101511879" id="node_00x20" type="right_before_left" weight_num="2.0" weight_sum="0.462203023758" x="0.00" y="2000.00" />
    <node avg_slowdown_ratio="0.256779457643" id="node_01x00" type="right_before_left" weight_num="3.0" weight_sum="0.77033837293" x="100.00" y="0.00" />
    <node avg_slowdown_ratio="0.27015838733" id="node_01x01" type="right_before_left" weight_num="4.0" weight_sum="1.08063354932" x="100.00" y="100.00" />
    <node avg_slowdown_ratio="0.273038156947" id="node_01x02" type="right_before_left" weight_num="4.0" weight_sum="1.09215262779" x="100.00" y="200.00" />
    <node avg_slowdown_ratio="0.25791936645" id="node_01x03" type="right_before_left" weight_num="4.0" weight_sum="1.0316774658" x="100.00" y="300.00" />
    <node avg_slowdown_ratio="0.294996400288" id="node_01x04" type="right_before_left" weight_num="4.0" weight_sum="1.17998560115" x="100.00" y="400.00" />
    <node avg_slowdown_ratio="0.2969762419" id="node_01x05" type="right_before_left" weight_num="4.0" weight_sum="1.1879049676" x="100.00" y="500.00" />
    <node avg_slowdown_ratio="0.31101511879" id="node_01x06" type="right_before_left" weight_num="4.0" weight_sum="1.24406047516" x="100.00" y="600.00" />
    <node avg_slowdown_ratio="0.31731461483" id="node_01x07" type="right_before_left" weight_num="4.0" weight_sum="1.26925845932" x="100.00" y="700.00" />
    <node avg_slowdown_ratio="0.335133189345" id="node_01x08" type="right_before_left" weight_num="4.0" weight_sum="1.34053275738" x="100.00" y="800.00" />
    <node avg_slowdown_ratio="0.327393808495" id="node_01x09" type="right_before_left" weight_num="4.0" weight_sum="1.30957523398" x="100.00" y="900.00" />
    <node avg_slowdown_ratio="0.329193664507" id="node_01x10" type="right_before_left" weight_num="4.0" weight_sum="1.31677465803" x="100.00" y="1000.00" />
    <node avg_slowdown_ratio="0.335673146147" id="node_01x11" type="right_before_left" weight_num="4.0" weight_sum="1.34269258459" x="100.00" y="1100.00" />
    <node avg_slowdown_ratio="0.317674586032" id="node_01x12" type="right_before_left" weight_num="4.0" weight_sum="1.27069834413" x="100.00" y="1200.00" />
    <node avg_slowdown_ratio="0.311375089993" id="node_01x13" type="right_before_left" weight_num="4.0" weight_sum="1.24550035997" x="100.00" y="1300.00" />
    <node avg_slowdown_ratio="0.30453563715" id="node_01x14" type="right_before_left" weight_num="4.0" weight_sum="1.2181425486" x="100.00" y="1400.00" />
    <node avg_slowdown_ratio="0.32667386609" id="node_01x15" type="right_before_left" weight_num="4.0" weight_sum="1.30669546436" x="100.00" y="1500.00" />
    <node avg_slowdown_ratio="0.295716342693" id="node_01x16" type="right_before_left" weight_num="4.0" weight_sum="1.18286537077" x="100.00" y="1600.00" />
    <node avg_slowdown_ratio="0.29985601152" id="node_01x17" type="right_before_left" weight_num="4.0" weight_sum="1.19942404608" x="100.00" y="1700.00" />
    <node avg_slowdown_ratio="0.276277897768" id="node_01x18" type="right_before_left" weight_num="4.0" weight_sum="1.10511159107" x="100.00" y="1800.00" />
    <node avg_slowdown_ratio="0.274298056155" id="node_01x19" type="right_before_left" weight_num="4.0" weight_sum="1.09719222462" x="100.00" y="1900.00" />
    <node avg_slowdown_ratio="0.261579073674" id="node_01x20" type="right_before_left" weight_num="3.0" weight_sum="0.784737221022" x="100.00" y="2000.00" />
    <node avg_slowdown_ratio="0.267818574514" id="node_02x00" type="right_before_left" weight_num="3.0" weight_sum="0.803455723542" x="200.00" y="0.00" />
    <node avg_slowdown_ratio="0.271598272137" id="node_02x01" type="right_before_left" weight_num="4.0" weight_sum="1.08639308855" x="200.00" y="100.00" />
    <node avg_slowdown_ratio="0.276277897768" id="node_02x02" type="right_before_left" weight_num="4.0" weight_sum="1.10511159107" x="200.00" y="200.00" />
    <node avg_slowdown_ratio="0.294636429085" id="node_02x03" type="right_before_left" weight_num="4.0" weight_sum="1.17854571634" x="200.00" y="300.00" />
    <node avg_slowdown_ratio="0.296436285097" id="node_02x04" type="right_before_left" weight_num="4.0" weight_sum="1.18574514039" x="200.00" y="400.00" />
    <node avg_slowdown_ratio="0.315154787617" id="node_02x05" type="right_before_left" weight_num="4.0" weight_sum="1.26061915047" x="200.00" y="500.00" />
    <node avg_slowdown_ratio="0.303815694745" id="node_02x06" type="right_before_left" weight_num="4.0" weight_sum="1.21526277898" x="200.00" y="600.00" />
    <node avg_slowdown_ratio="0.332253419727" id="node_02x07" type="right_before_left" weight_num="4.0" weight_sum="1.32901367891" x="200.00" y="700.00" />
    <node avg_slowdown_ratio="0.354211663065" id="node_02x08" type="right_before_left" weight_num="4.0" weight_sum="1.41684665226" x="200.00" y="800.00" />
    <node avg_slowdown_ratio="0.348632109433" id="node_02x09" type="right_before_left" weight_num="4.0" weight_sum="1.39452843773" x="200.00" y="900.00" />
    <node avg_slowdown_ratio="0.341612670987" id="node_02x10" type="right_before_left" weight_num="4.0" weight_sum="1.36645068395" x="200.00" y="1000.00" />
    <node avg_slowdown_ratio="0.361591072715" id="node_02x11" type="right_before_left" weight_num="4.0" weight_sum="1.44636429086" x="200.00" y="1100.00" />
    <node avg_slowdown_ratio="0.319474442045" id="node_02x12" type="right_before_left" weight_num="4.0" weight_sum="1.27789776818" x="200.00" y="1200.00" />
    <node avg_slowdown_ratio="0.344492440605" id="node_02x13" type="right_before_left" weight_num="4.0" weight_sum="1.37796976242" x="200.00" y="1300.00" />
    <node avg_slowdown_ratio="0.333873290138" id="node_02x14" type="right_before_left" weight_num="4.0" weight_sum="1.33549316055" x="200.00" y="1400.00" />
    <node avg_slowdown_ratio="0.321634269257" id="node_02x15" type="right_before_left" weight_num="4.0" weight_sum="1.28653707703" x="200.00" y="1500.00" />
    <node avg_slowdown_ratio="0.327213822895" id="node_02x16" type="right_before_left" weight_num="4.0" weight_sum="1.30885529158" x="200.00" y="1600.00" />
    <node avg_slowdown_ratio="0.290856731463" id="node_02x17" type="right_before_left" weight_num="4.0" weight_sum="1.16342692585" x="200.00" y="1700.00" />
    <node avg_slowdown_ratio="0.291576673865" id="node_02x18" type="right_before_left" weight_num="4.0" weight_sum="1.16630669546" x="200.00" y="1800.00" />
    <node avg_slowdown_ratio="0.27951763859" id="node_02x19" type="right_before_left" weight_num="4.0" weight_sum="1.11807055436" x="200.00" y="1900.00" />
    <node avg_slowdown_ratio="0.254139668826" id="node_02x20" type="right_before_left" weight_num="3.0" weight_sum="0.762419006479" x="200.00" y="2000.00" />
    <node avg_slowdown_ratio="0.244540436765" id="node_03x00" type="right_before_left" weight_num="3.0" weight_sum="0.733621310296" x="300.00" y="0.00" />
    <node avg_slowdown_ratio="0.275377969763" id="node_03x01" type="right_before_left" weight_num="4.0" weight_sum="1.10151187905" x="300.00" y="100.00" />
    <node avg_slowdown_ratio="0.283657307415" id="node_03x02" type="right_before_left" weight_num="4.0" weight_sum="1.13462922966" x="300.00" y="200.00" />
    <node avg_slowdown_ratio="0.316234701223" id="node_03x03" type="right_before_left" weight_num="4.0" weight_sum="1.26493880489" x="300.00" y="300.00" />
    <node avg_slowdown_ratio="0.334233261337" id="node_03x04" type="right_before_left" weight_num="4.0" weight_sum="1.33693304535" x="300.00" y="400.00" />
    <node avg_slowdown_ratio="0.355111591073" id="node_03x05" type="right_before_left" weight_num="4.0" weight_sum="1.42044636429" x="300.00" y="500.00" />
    <node avg_slowdown_ratio="0.338732901368" id="node_03x06" type="right_before_left" weight_num="4.0" weight_sum="1.35493160547" x="300.00" y="600.00" />
    <node avg_slowdown_ratio="0.365190784737" id="node_03x07" type="right_before_left" weight_num="4.0" weight_sum="1.46076313895" x="300.00" y="700.00" />
    <node avg_slowdown_ratio="0.38444924406" id="node_03x08" type="right_before_left" weight_num="4.0" weight_sum="1.53779697624" x="300.00" y="800.00" />
    <node avg_slowdown_ratio="0.396328293735" id="node_03x09" type="right_before_left" weight_num="4.0" weight_sum="1.58531317494" x="300.00" y="900.00" />
    <node avg_slowdown_ratio="0.364470842332" id="node_03x10" type="right_before_left" weight_num="4.0" weight_sum="1.45788336933" x="300.00" y="1000.00" />
    <node avg_slowdown_ratio="0.402447804175" id="node_03x11" type="right_before_left" weight_num="4.0" weight_sum="1.6097912167" x="300.00" y="1100.00" />
    <node avg_slowdown_ratio="0.378509719222" id="node_03x12" type="right_before_left" weight_num="4.0" weight_sum="1.51403887689" x="300.00" y="1200.00" />
    <node avg_slowdown_ratio="0.350971922248" id="node_03x13" type="right_before_left" weight_num="4.0" weight_sum="1.40388768899" x="300.00" y="1300.00" />
    <node avg_slowdown_ratio="0.355291576675" id="node_03x14" type="right_before_left" weight_num="4.0" weight_sum="1.4211663067" x="300.00" y="1400.00" />
    <node avg_slowdown_ratio="0.33891288697" id="node_03x15" type="right_before_left" weight_num="4.0" weight_sum="1.35565154788" x="300.00" y="1500.00" />
    <node avg_slowdown_ratio="0.334053275737" id="node_03x16" type="right_before_left" weight_num="4.0" weight_sum="1.33621310295" x="300.00" y="1600.00" />
    <node avg_slowdown_ratio="0.31695464363" id="node_03x17" type="right_before_left" weight_num="4.0" weight_sum="1.26781857452" x="300.00" y="1700.00" />
    <node avg_slowdown_ratio="0.303815694745" id="node_03x18" type="right_before_left" weight_num="4.0" weight_sum="1.21526277898" x="300.00" y="1800.00" />
    <node avg_slowdown_ratio="0.283837293017" id="node_03x19" type="right_before_left" weight_num="4.0" weight_sum="1.13534917207" x="300.00" y="1900.00" />
    <node avg_slowdown_ratio="0.261579073674" id="node_03x20" type="right_before_left" weight_num="3.0" weight_sum="0.784737221022" x="300.00" y="2000.00" />
    <node avg_slowdown_ratio="0.238540916727" id="node_04x00" type="right_before_left" weight_num="3.0" weight_sum="0.71562275018" x="400.00" y="0.00" />
    <node avg_slowdown_ratio="0.274658027358" id="node_04x01" type="right_before_left" weight_num="4.0" weight_sum="1.09863210943" x="400.00" y="100.00" />
    <node avg_slowdown_ratio="0.321454283658" id="node_04x02" type="right_before_left" weight_num="4.0" weight_sum="1.28581713463" x="400.00" y="200.00" />
    <node avg_slowdown_ratio="0.329193664507" id="node_04x03" type="right_before_left" weight_num="4.0" weight_sum="1.31677465803" x="400.00" y="300.00" />
    <node avg_slowdown_ratio="0.328473722102" id="node_04x04" type="right_before_left" weight_num="4.0" weight_sum="1.31389488841" x="400.00" y="400.00" />
    <node avg_slowdown_ratio="0.34557235421" id="node_04x05" type="right_before_left" weight_num="4.0" weight_sum="1.38228941684" x="400.00" y="500.00" />
    <node avg_slowdown_ratio="0.35745140389" id="node_04x06" type="right_before_left" weight_num="4.0" weight_sum="1.42980561556" x="400.00" y="600.00" />
    <node avg_slowdown_ratio="0.39218862491" id="node_04x07" type="right_before_left" weight_num="4.0" weight_sum="1.56875449964" x="400.00" y="700.00" />
    <node avg_slowdown_ratio="0.37059035277" id="node_04x08" type="right_before_left" weight_num="4.0" weight_sum="1.48236141108" x="400.00" y="800.00" />
    <node avg_slowdown_ratio="0.399568034555" id="node_04x09" type="right_before_left" weight_num="4.0" weight_sum="1.59827213822" x="400.00" y="900.00" />
    <node avg_slowdown_ratio="0.392008639308" id="node_04x10" type="right_before_left" weight_num="4.0" weight_sum="1.56803455723" x="400.00" y="1000.00" />
    <node avg_slowdown_ratio="0.427825773937" id="node_04x11" type="right_before_left" weight_num="4.0" weight_sum="1.71130309575" x="400.00" y="1100.00" />
    <node avg_slowdown_ratio="0.37041036717" id="node_04x12" type="right_before_left" weight_num="4.0" weight_sum="1.48164146868" x="400.00" y="1200.00" />
    <node avg_slowdown_ratio="0.374550035995" id="node_04x13" type="right_before_left" weight_num="4.0" weight_sum="1.49820014398" x="400.00" y="1300.00" />
    <node avg_slowdown_ratio="0.394528437725" id="node_04x14" type="right_before_left" weight_num="4.0" weight_sum="1.5781137509" x="400.00" y="1400.00" />
    <node avg_slowdown_ratio="0.37652987761" id="node_04x15" type="right_before_left" weight_num="4.0" weight_sum="1.50611951044" x="400.00" y="1500.00" />
    <node avg_slowdown_ratio="0.335493160548" id="node_04x16" type="right_before_left" weight_num="4.0" weight_sum="1.34197264219" x="400.00" y="1600.00" />
    <node avg_slowdown_ratio="0.332073434125" id="node_04x17" type="right_before_left" weight_num="4.0" weight_sum="1.3282937365" x="400.00" y="1700.00" />
    <node avg_slowdown_ratio="0.328473722102" id="node_04x18" type="right_before_left" weight_num="4.0" weight_sum="1.31389488841" x="400.00" y="1800.00" />
    <node avg_slowdown_ratio="0.299496040317" id="node_04x19" type="right_before_left" weight_num="4.0" weight_sum="1.19798416127" x="400.00" y="1900.00" />
    <node avg_slowdown_ratio="0.267338612911" id="node_04x20" type="right_before_left" weight_num="3.0" weight_sum="0.802015838733" x="400.00" y="2000.00" />
    <node avg_slowdown_ratio="0.246700263979" id="node_05x00" type="right_before_left" weight_num="3.0" weight_sum="0.740100791937" x="500.00" y="0.00" />
    <node avg_slowdown_ratio="0.298776097912" id="node_05x01" type="right_before_left" weight_num="4.0" weight_sum="1.19510439165" x="500.00" y="100.00" />
    <node avg_slowdown_ratio="0.308135349173" id="node_05x02" type="right_before_left" weight_num="4.0" weight_sum="1.23254139669" x="500.00" y="200.00" />
    <node avg_slowdown_ratio="0.327213822893" id="node_05x03" type="right_before_left" weight_num="4.0" weight_sum="1.30885529157" x="500.00" y="300.00" />
    <node avg_slowdown_ratio="0.337293016557" id="node_05x04" type="right_before_left" weight_num="4.0" weight_sum="1.34917206623" x="500.00" y="400.00" />
    <node avg_slowdown_ratio="0.384989200862" id="node_05x05" type="right_before_left" weight_num="4.0" weight_sum="1.53995680345" x="500.00" y="500.00" />
    <node avg_slowdown_ratio="0.392548596112" id="node_05x06" type="right_before_left" weight_num="4.0" weight_sum="1.57019438445" x="500.00" y="600.00" />
    <node avg_slowdown_ratio="0.397768178545" id="node_05x07" type="right_before_left" weight_num="4.0" weight_sum="1.59107271418" x="500.00" y="700.00" />
    <node avg_slowdown_ratio="0.431785457165" id="node_05x08" type="right_before_left" weight_num="4.0" weight_sum="1.72714182866" x="500.00" y="800.00" />
    <node avg_slowdown_ratio="0.410187185025" id="node_05x09" type="right_before_left" weight_num="4.0" weight_sum="1.6407487401" x="500.00" y="900.00" />
    <node avg_slowdown_ratio="0.439524838012" id="node_05x10" type="right_before_left" weight_num="4.0" weight_sum="1.75809935205" x="500.00" y="1000.00" />
    <node avg_slowdown_ratio="0.44042476602" id="node_05x11" type="right_before_left" weight_num="4.0" weight_sum="1.76169906408" x="500.00" y="1100.00" />
    <node avg_slowdown_ratio="0.415046796258" id="node_05x12" type="right_before_left" weight_num="4.0" weight_sum="1.66018718503" x="500.00" y="1200.00" />
    <node avg_slowdown_ratio="0.445464362853" id="node_05x13" type="right_before_left" weight_num="4.0" weight_sum="1.78185745141" x="500.00" y="1300.00" />
    <node avg_slowdown_ratio="0.450503959683" id="node_05x14" type="right_before_left" weight_num="4.0" weight_sum="1.80201583873" x="500.00" y="1400.00" />
    <node avg_slowdown_ratio="0.404067674585" id="node_05x15" type="right_before_left" weight_num="4.0" weight_sum="1.61627069834" x="500.00" y="1500.00" />
    <node avg_slowdown_ratio="0.37059035277" id="node_05x16" type="right_before_left" weight_num="4.0" weight_sum="1.48236141108" x="500.00" y="1600.00" />
    <node avg_slowdown_ratio="0.352051835852" id="node_05x17" type="right_before_left" weight_num="4.0" weight_sum="1.40820734341" x="500.00" y="1700.00" />
    <node avg_slowdown_ratio="0.33909287257" id="node_05x18" type="right_before_left" weight_num="4.0" weight_sum="1.35637149028" x="500.00" y="1800.00" />
    <node avg_slowdown_ratio="0.319834413248" id="node_05x19" type="right_before_left" weight_num="4.0" weight_sum="1.27933765299" x="500.00" y="1900.00" />
    <node avg_slowdown_ratio="0.253419726422" id="node_05x20" type="right_before_left" weight_num="3.0" weight_sum="0.760259179265" x="500.00" y="2000.00" />
    <node avg_slowdown_ratio="0.254859611231" id="node_06x00" type="right_before_left" weight_num="3.0" weight_sum="0.764578833693" x="600.00" y="0.00" />
    <node avg_slowdown_ratio="0.2969762419" id="node_06x01" type="right_before_left" weight_num="4.0" weight_sum="1.1879049676" x="600.00" y="100.00" />
    <node avg_slowdown_ratio="0.333873290135" id="node_06x02" type="right_before_left" weight_num="4.0" weight_sum="1.33549316054" x="600.00" y="200.00" />
    <node avg_slowdown_ratio="0.352591792658" id="node_06x03" type="right_before_left" weight_num="4.0" weight_sum="1.41036717063" x="600.00" y="300.00" />
    <node avg_slowdown_ratio="0.391468682507" id="node_06x04" type="right_before_left" weight_num="4.0" weight_sum="1.56587473003" x="600.00" y="400.00" />
    <node avg_slowdown_ratio="0.404247660188" id="node_06x05" type="right_before_left" weight_num="4.0" weight_sum="1.61699064075" x="600.00" y="500.00" />
    <node avg_slowdown_ratio="0.400647948165" id="node_06x06" type="right_before_left" weight_num="4.0" weight_sum="1.60259179266" x="600.00" y="600.00" />
    <node avg_slowdown_ratio="0.455363570915" id="node_06x07" type="right_before_left" weight_num="4.0" weight_sum="1.82145428366" x="600.00" y="700.00" />
    <node avg_slowdown_ratio="0.497300215983" id="node_06x08" type="right_before_left" weight_num="4.0" weight_sum="1.98920086393" x="600.00" y="800.00" />
    <node avg_slowdown_ratio="0.450323974083" id="node_06x09" type="right_before_left" weight_num="4.0" weight_sum="1.80129589633" x="600.00" y="900.00" />
    <node avg_slowdown_ratio="0.473182145427" id="node_06x10" type="right_before_left" weight_num="4.0" weight_sum="1.89272858171" x="600.00" y="1000.00" />
    <node avg_slowdown_ratio="0.525377969762" id="node_06x11" type="right_before_left" weight_num="4.0" weight_sum="2.10151187905" x="600.00" y="1100.00" />
    <node avg_slowdown_ratio="0.483081353492" id="node_06x12" type="right_before_left" weight_num="4.0" weight_sum="1.93232541397" x="600.00" y="1200.00" />
    <node avg_slowdown_ratio="0.44510439165" id="node_06x13" type="right_before_left" weight_num="4.0" weight_sum="1.7804175666" x="600.00" y="1300.00" />
    <node avg_slowdown_ratio="0.485061195105" id="node_06x14" type="right_before_left" weight_num="4.0" weight_sum="1.94024478042" x="600.00" y="1400.00" />
    <node avg_slowdown_ratio="0.41090712743" id="node_06x15" type="right_before_left" weight_num="4.0" weight_sum="1.64362850972" x="600.00" y="1500.00" />
    <node avg_slowdown_ratio="0.386429085673" id="node_06x16" type="right_before_left" weight_num="4.0" weight_sum="1.54571634269" x="600.00" y="1600.00" />
    <node avg_slowdown_ratio="0.367890568752" id="node_06x17" type="right_before_left" weight_num="4.0" weight_sum="1.47156227501" x="600.00" y="1700.00" />
    <node avg_slowdown_ratio="0.330273578115" id="node_06x18" type="right_before_left" weight_num="4.0" weight_sum="1.32109431246" x="600.00" y="1800.00" />
    <node avg_slowdown_ratio="0.312994960403" id="node_06x19" type="right_before_left" weight_num="4.0" weight_sum="1.25197984161" x="600.00" y="1900.00" />
    <node avg_slowdown_ratio="0.26877849772" id="node_06x20" type="right_before_left" weight_num="3.0" weight_sum="0.80633549316" x="600.00" y="2000.00" />
    <node avg_slowdown_ratio="0.255579553636" id="node_07x00" type="right_before_left" weight_num="3.0" weight_sum="0.766738660907" x="700.00" y="0.00" />
    <node avg_slowdown_ratio="0.30021598272" id="node_07x01" type="right_before_left" weight_num="4.0" weight_sum="1.20086393088" x="700.00" y="100.00" />
    <node avg_slowdown_ratio="0.333333333332" id="node_07x02" type="right_before_left" weight_num="4.0" weight_sum="1.33333333333" x="700.00" y="200.00" />
    <node avg_slowdown_ratio="0.369330453562" id="node_07x03" type="right_before_left" weight_num="4.0" weight_sum="1.47732181425" x="700.00" y="300.00" />
    <node avg_slowdown_ratio="0.361771058318" id="node_07x04" type="right_before_left" weight_num="4.0" weight_sum="1.44708423327" x="700.00" y="400.00" />
    <node avg_slowdown_ratio="0.435385169187" id="node_07x05" type="right_before_left" weight_num="4.0" weight_sum="1.74154067675" x="700.00" y="500.00" />
    <node avg_slowdown_ratio="0.439884809215" id="node_07x06" type="right_before_left" weight_num="4.0" weight_sum="1.75953923686" x="700.00" y="600.00" />
    <node avg_slowdown_ratio="0.42350611951" id="node_07x07" type="right_before_left" weight_num="4.0" weight_sum="1.69402447804" x="700.00" y="700.00" />
    <node avg_slowdown_ratio="0.469402447805" id="node_07x08" type="right_before_left" weight_num="4.0" weight_sum="1.87760979122" x="700.00" y="800.00" />
    <node avg_slowdown_ratio="0.53599712023" id="node_07x09" type="right_before_left" weight_num="4.0" weight_sum="2.14398848092" x="700.00" y="900.00" />
    <node avg_slowdown_ratio="0.444204463642" id="node_07x10" type="right_before_left" weight_num="4.0" weight_sum="1.77681785457" x="700.00" y="1000.00" />
    <node avg_slowdown_ratio="0.477501799855" id="node_07x11" type="right_before_left" weight_num="4.0" weight_sum="1.91000719942" x="700.00" y="1100.00" />
    <node avg_slowdown_ratio="0.50197984161" id="node_07x12" type="right_before_left" weight_num="4.0" weight_sum="2.00791936644" x="700.00" y="1200.00" />
    <node avg_slowdown_ratio="0.469042476602" id="node_07x13" type="right_before_left" weight_num="4.0" weight_sum="1.87616990641" x="700.00" y="1300.00" />
    <node avg_slowdown_ratio="0.488120950325" id="node_07x14" type="right_before_left" weight_num="4.0" weight_sum="1.9524838013" x="700.00" y="1400.00" />
    <node avg_slowdown_ratio="0.414866810655" id="node_07x15" type="right_before_left" weight_num="4.0" weight_sum="1.65946724262" x="700.00" y="1500.00" />
    <node avg_slowdown_ratio="0.391108711303" id="node_07x16" type="right_before_left" weight_num="4.0" weight_sum="1.56443484521" x="700.00" y="1600.00" />
    <node avg_slowdown_ratio="0.3592512599" id="node_07x17" type="right_before_left" weight_num="4.0" weight_sum="1.4370050396" x="700.00" y="1700.00" />
    <node avg_slowdown_ratio="0.346112311015" id="node_07x18" type="right_before_left" weight_num="4.0" weight_sum="1.38444924406" x="700.00" y="1800.00" />
    <node avg_slowdown_ratio="0.30489560835" id="node_07x19" type="right_before_left" weight_num="4.0" weight_sum="1.2195824334" x="700.00" y="1900.00" />
    <node avg_slowdown_ratio="0.260379169666" id="node_07x20" type="right_before_left" weight_num="3.0" weight_sum="0.781137508999" x="700.00" y="2000.00" />
    <node avg_slowdown_ratio="0.250539956803" id="node_08x00" type="right_before_left" weight_num="3.0" weight_sum="0.75161987041" x="800.00" y="0.00" />
    <node avg_slowdown_ratio="0.30777537797" id="node_08x01" type="right_before_left" weight_num="4.0" weight_sum="1.23110151188" x="800.00" y="100.00" />
    <node avg_slowdown_ratio="0.321094312455" id="node_08x02" type="right_before_left" weight_num="4.0" weight_sum="1.28437724982" x="800.00" y="200.00" />
    <node avg_slowdown_ratio="0.400647948165" id="node_08x03" type="right_before_left" weight_num="4.0" weight_sum="1.60259179266" x="800.00" y="300.00" />
    <node avg_slowdown_ratio="0.40766738661" id="node_08x04" type="right_before_left" weight_num="4.0" weight_sum="1.63066954644" x="800.00" y="400.00" />
    <node avg_slowdown_ratio="0.410727141827" id="node_08x05" type="right_before_left" weight_num="4.0" weight_sum="1.64290856731" x="800.00" y="500.00" />
    <node avg_slowdown_ratio="0.477321814255" id="node_08x06" type="right_before_left" weight_num="4.0" weight_sum="1.90928725702" x="800.00" y="600.00" />
    <node avg_slowdown_ratio="0.477501799855" id="node_08x07" type="right_before_left" weight_num="4.0" weight_sum="1.91000719942" x="800.00" y="700.00" />
    <node avg_slowdown_ratio="0.521598272137" id="node_08x08" type="right_before_left" weight_num="4.0" weight_sum="2.08639308855" x="800.00" y="800.00" />
    <node avg_slowdown_ratio="0.504139668828" id="node_08x09" type="right_before_left" weight_num="4.0" weight_sum="2.01655867531" x="800.00" y="900.00" />
    <node avg_slowdown_ratio="0.506839452845" id="node_08x10" type="right_before_left" weight_num="4.0" weight_sum="2.02735781138" x="800.00" y="1000.00" />
    <node avg_slowdown_ratio="0.494960403165" id="node_08x11" type="right_before_left" weight_num="4.0" weight_sum="1.97984161266" x="800.00" y="1100.00" />
    <node avg_slowdown_ratio="0.538336933045" id="node_08x12" type="right_before_left" weight_num="4.0" weight_sum="2.15334773218" x="800.00" y="1200.00" />
    <node avg_slowdown_ratio="0.474262059035" id="node_08x13" type="right_before_left" weight_num="4.0" weight_sum="1.89704823614" x="800.00" y="1300.00" />
    <node avg_slowdown_ratio="0.522498200145" id="node_08x14" type="right_before_left" weight_num="4.0" weight_sum="2.08999280058" x="800.00" y="1400.00" />
    <node avg_slowdown_ratio="0.425845932325" id="node_08x15" type="right_before_left" weight_num="4.0" weight_sum="1.7033837293" x="800.00" y="1500.00" />
    <node avg_slowdown_ratio="0.39200863931" id="node_08x16" type="right_before_left" weight_num="4.0" weight_sum="1.56803455724" x="800.00" y="1600.00" />
    <node avg_slowdown_ratio="0.366090712745" id="node_08x17" type="right_before_left" weight_num="4.0" weight_sum="1.46436285098" x="800.00" y="1700.00" />
    <node avg_slowdown_ratio="0.334953203742" id="node_08x18" type="right_before_left" weight_num="4.0" weight_sum="1.33981281497" x="800.00" y="1800.00" />
    <node avg_slowdown_ratio="0.319114470842" id="node_08x19" type="right_before_left" weight_num="4.0" weight_sum="1.27645788337" x="800.00" y="1900.00" />
    <node avg_slowdown_ratio="0.265418766499" id="node_08x20" type="right_before_left" weight_num="3.0" weight_sum="0.796256299496" x="800.00" y="2000.00" />