<additional>
    <edgeData id="all" file=".\..\3_dump\island.dump.xml" excludeEmpty="false"/>
</additional>
