<?xml version="1.0" encoding="UTF-8"?>

<!-- generated on 11/30/16 16:53:46 by SUMO netconvert Version 0.27.1
<?xml version="1.0" encoding="UTF-8"?>

<configuration xmlns:xsi="http://www.w3.org/2001/XMLSchema-instance" xsi:noNamespaceSchemaLocation="http://sumo.dlr.de/xsd/netconvertConfiguration.xsd">

    <input>
        <node-files value="C:\Users\zs633\Capstone\3_lensing\test_3\7_displaced\lensing.nod.xml"/>
        <edge-files value="C:\Users\zs633\Capstone\3_lensing\test_3\7_displaced\lensing.edg.xml"/>
        <connection-files value="C:\Users\zs633\Capstone\3_lensing\test_3\4_plain\test.con.xml"/>
        <tllogic-files value="C:\Users\zs633\Capstone\3_lensing\test_3\4_plain\test.tll.xml"/>
    </input>

    <output>
        <output-file value="C:\Users\zs633\Capstone\3_lensing\test_3\9_output_net\lensing.net.xml"/>
    </output>

    <processing>
        <ignore-errors value="true"/>
        <ignore-errors.edge-type value="true"/>
    </processing>

    <report>
        <verbose value="true"/>
        <xml-validation value="never"/>
        <no-warnings value="true"/>
    </report>

</configuration>
-->

<net version="0.27" xmlns:xsi="http://www.w3.org/2001/XMLSchema-instance" xsi:noNamespaceSchemaLocation="http://sumo.dlr.de/xsd/net_file.xsd">

    <location netOffset="513.80,513.80" convBoundary="0.00,0.00,3027.59,3027.59" origBoundary="-513.80,-513.80,2513.80,2513.80" projParameter="!"/>

    <edge id=":node_00x00_0" function="internal">
        <lane id=":node_00x00_0_0" index="0" disallow="tram rail_urban rail rail_electric ship" speed="13.89" length="0.12" shape="508.44,508.35 508.35,508.44"/>
    </edge>
    <edge id=":node_00x00_1" function="internal">
        <lane id=":node_00x00_1_0" index="0" disallow="tram rail_urban rail rail_electric ship" speed="13.89" length="0.37" shape="505.93,506.19 506.19,505.93"/>
    </edge>
    <edge id=":node_00x01_0" function="internal">
        <lane id=":node_00x01_0_0" index="0" disallow="tram rail_urban rail rail_electric ship" speed="13.89" length="2.51" shape="457.18,563.61 455.55,565.52"/>
    </edge>
    <edge id=":node_00x01_1" function="internal">
        <lane id=":node_00x01_1_0" index="0" disallow="tram rail_urban rail rail_electric ship" speed="13.89" length="3.30" shape="457.18,563.61 454.76,561.37"/>
    </edge>
    <edge id=":node_00x01_2" function="internal">
        <lane id=":node_00x01_2_0" index="0" disallow="tram rail_urban rail rail_electric ship" speed="13.89" length="2.51" shape="457.18,563.61 455.55,565.52"/>
    </edge>
    <edge id=":node_00x01_3" function="internal">
        <lane id=":node_00x01_3_0" index="0" disallow="tram rail_urban rail rail_electric ship" speed="13.89" length="3.30" shape="457.18,563.61 454.76,561.37"/>
    </edge>
    <edge id=":node_00x01_4" function="internal">
        <lane id=":node_00x01_4_0" index="0" disallow="tram rail_urban rail rail_electric ship" speed="13.89" length="2.78" shape="452.95,563.49 454.76,561.37"/>
    </edge>
    <edge id=":node_00x01_5" function="internal">
        <lane id=":node_00x01_5_0" index="0" disallow="tram rail_urban rail rail_electric ship" speed="13.89" length="2.78" shape="452.95,563.49 454.76,561.37"/>
    </edge>
    <edge id=":node_00x02_0" function="internal">
        <lane id=":node_00x02_0_0" index="0" disallow="tram rail_urban rail rail_electric ship" speed="13.89" length="2.41" shape="402.78,633.02 401.38,634.99"/>
    </edge>
    <edge id=":node_00x02_1" function="internal">
        <lane id=":node_00x02_1_0" index="0" disallow="tram rail_urban rail rail_electric ship" speed="13.89" length="3.31" shape="402.78,633.02 400.16,631.00"/>
    </edge>
    <edge id=":node_00x02_2" function="internal">
        <lane id=":node_00x02_2_0" index="0" disallow="tram rail_urban rail rail_electric ship" speed="13.89" length="2.41" shape="402.77,633.02 401.38,634.99"/>
    </edge>
    <edge id=":node_00x02_3" function="internal">
        <lane id=":node_00x02_3_0" index="0" disallow="tram rail_urban rail rail_electric ship" speed="13.89" length="3.29" shape="402.77,633.02 400.16,631.01"/>
    </edge>
    <edge id=":node_00x02_4" function="internal">
        <lane id=":node_00x02_4_0" index="0" disallow="tram rail_urban rail rail_electric ship" speed="13.89" length="2.70" shape="398.60,633.21 400.16,631.00"/>
    </edge>
    <edge id=":node_00x02_5" function="internal">
        <lane id=":node_00x02_5_0" index="0" disallow="tram rail_urban rail rail_electric ship" speed="13.89" length="2.70" shape="398.60,633.21 400.16,631.01"/>
    </edge>
    <edge id=":node_00x03_0" function="internal">
        <lane id=":node_00x03_0_0" index="0" disallow="tram rail_urban rail rail_electric ship" speed="13.89" length="2.25" shape="348.20,717.90 347.09,719.87"/>
    </edge>
    <edge id=":node_00x03_1" function="internal">
        <lane id=":node_00x03_1_0" index="0" disallow="tram rail_urban rail rail_electric ship" speed="13.89" length="3.32" shape="348.20,717.90 345.37,716.16"/>
    </edge>
    <edge id=":node_00x03_2" function="internal">
        <lane id=":node_00x03_2_0" index="0" disallow="tram rail_urban rail rail_electric ship" speed="13.89" length="2.25" shape="348.18,717.89 347.09,719.87"/>
    </edge>
    <edge id=":node_00x03_3" function="internal">
        <lane id=":node_00x03_3_0" index="0" disallow="tram rail_urban rail rail_electric ship" speed="13.89" length="3.28" shape="348.18,717.89 345.39,716.17"/>
    </edge>
    <edge id=":node_00x03_4" function="internal">
        <lane id=":node_00x03_4_0" index="0" disallow="tram rail_urban rail rail_electric ship" speed="13.89" length="2.55" shape="344.14,718.39 345.37,716.16"/>
    </edge>
    <edge id=":node_00x03_5" function="internal">
        <lane id=":node_00x03_5_0" index="0" disallow="tram rail_urban rail rail_electric ship" speed="13.89" length="2.55" shape="344.14,718.39 345.39,716.17"/>
    </edge>
    <edge id=":node_00x04_0" function="internal">
        <lane id=":node_00x04_0_0" index="0" disallow="tram rail_urban rail rail_electric ship" speed="13.89" length="2.11" shape="297.25,819.90 296.43,821.84"/>
    </edge>
    <edge id=":node_00x04_1" function="internal">
        <lane id=":node_00x04_1_0" index="0" disallow="tram rail_urban rail rail_electric ship" speed="13.89" length="3.33" shape="297.25,819.90 294.23,818.49"/>
    </edge>
    <edge id=":node_00x04_2" function="internal">
        <lane id=":node_00x04_2_0" index="0" disallow="tram rail_urban rail rail_electric ship" speed="13.89" length="2.11" shape="297.22,819.88 296.43,821.84"/>
    </edge>
    <edge id=":node_00x04_3" function="internal">
        <lane id=":node_00x04_3_0" index="0" disallow="tram rail_urban rail rail_electric ship" speed="13.89" length="3.27" shape="297.22,819.88 294.26,818.51"/>
    </edge>
    <edge id=":node_00x04_4" function="internal">
        <lane id=":node_00x04_4_0" index="0" disallow="tram rail_urban rail rail_electric ship" speed="13.89" length="2.42" shape="293.32,820.73 294.23,818.49"/>
    </edge>
    <edge id=":node_00x04_5" function="internal">
        <lane id=":node_00x04_5_0" index="0" disallow="tram rail_urban rail rail_electric ship" speed="13.89" length="2.42" shape="293.32,820.73 294.26,818.51"/>
    </edge>
    <edge id=":node_00x05_0" function="internal">
        <lane id=":node_00x05_0_0" index="0" disallow="tram rail_urban rail rail_electric ship" speed="13.89" length="2.63" shape="254.92,938.56 254.13,941.07"/>
    </edge>
    <edge id=":node_00x05_1" function="internal">
        <lane id=":node_00x05_1_0" index="0" disallow="tram rail_urban rail rail_electric ship" speed="13.89" length="81.90" shape="254.92,938.56 244.43,967.42 240.40,976.88 242.83,966.93 251.71,937.57"/>
    </edge>
    <edge id=":node_00x05_2" function="internal">
        <lane id=":node_00x05_2_0" index="0" disallow="tram rail_urban rail rail_electric ship" speed="13.89" length="2.63" shape="254.87,938.55 254.13,941.07"/>
    </edge>
    <edge id=":node_00x05_3" function="internal">
        <lane id=":node_00x05_3_0" index="0" disallow="tram rail_urban rail rail_electric ship" speed="13.89" length="3.25" shape="254.87,938.55 251.76,937.59"/>
    </edge>
    <edge id=":node_00x05_4" function="internal">
        <lane id=":node_00x05_4_0" index="0" disallow="tram rail_urban rail rail_electric ship" speed="13.89" length="2.73" shape="250.95,940.19 251.71,937.57"/>
    </edge>
    <edge id=":node_00x05_5" function="internal">
        <lane id=":node_00x05_5_0" index="0" disallow="tram rail_urban rail rail_electric ship" speed="13.89" length="2.73" shape="250.95,940.19 251.76,937.59"/>
    </edge>
    <edge id=":node_00x06_0" function="internal">
        <lane id=":node_00x06_0_0" index="0" disallow="tram rail_urban rail rail_electric ship" speed="13.89" length="13.41" shape="222.12,1057.06 217.53,1069.66"/>
    </edge>
    <edge id=":node_00x06_1" function="internal">
        <lane id=":node_00x06_1_0" index="0" disallow="tram rail_urban rail rail_electric ship" speed="13.89" length="7.23" shape="222.12,1057.06 220.11,1062.10 218.70,1063.22"/>
    </edge>
    <edge id=":node_00x06_6" function="internal">
        <lane id=":node_00x06_6_0" index="0" speed="13.89" length="9.65" shape="218.70,1063.22 217.75,1063.97 215.04,1062.67 211.97,1058.19"/>
    </edge>
    <edge id=":node_00x06_2" function="internal">
        <lane id=":node_00x06_2_0" index="0" disallow="tram rail_urban rail rail_electric ship" speed="13.89" length="6.75" shape="214.88,1056.64 216.10,1058.43 217.19,1058.95 218.13,1058.20 218.94,1056.18"/>
    </edge>
    <edge id=":node_00x06_3" function="internal">
        <lane id=":node_00x06_3_0" index="0" disallow="tram rail_urban rail rail_electric ship" speed="13.89" length="13.77" shape="214.88,1056.64 216.92,1060.95 218.04,1064.56 218.24,1067.46 217.53,1069.66"/>
    </edge>
    <edge id=":node_00x06_4" function="internal">
        <lane id=":node_00x06_4_0" index="0" disallow="tram rail_urban rail rail_electric ship" speed="13.89" length="10.34" shape="214.75,1067.88 215.06,1066.51 214.71,1064.43 213.67,1061.66 211.97,1058.19"/>
    </edge>
    <edge id=":node_00x06_5" function="internal">
        <lane id=":node_00x06_5_0" index="0" disallow="tram rail_urban rail rail_electric ship" speed="13.89" length="12.49" shape="214.75,1067.88 216.35,1064.95 217.35,1062.26 218.10,1059.45 218.94,1056.18"/>
    </edge>
    <edge id=":node_00x07_0" function="internal">
        <lane id=":node_00x07_0_0" index="0" disallow="tram rail_urban rail rail_electric ship" speed="13.89" length="9.01" shape="160.35,1159.37 156.03,1167.29"/>
    </edge>
    <edge id=":node_00x07_1" function="internal">
        <lane id=":node_00x07_1_0" index="0" disallow="tram rail_urban rail rail_electric ship" speed="13.89" length="5.51" shape="160.35,1159.37 158.10,1161.99 156.20,1162.78"/>
    </edge>
    <edge id=":node_00x07_6" function="internal">
        <lane id=":node_00x07_6_0" index="0" speed="13.89" length="6.48" shape="156.20,1162.78 155.75,1162.97 153.28,1162.32 150.70,1160.04"/>
    </edge>
    <edge id=":node_00x07_2" function="internal">
        <lane id=":node_00x07_2_0" index="0" disallow="tram rail_urban rail rail_electric ship" speed="13.89" length="5.40" shape="153.22,1157.90 154.38,1158.93 155.49,1159.22 156.55,1158.78 157.56,1157.60"/>
    </edge>
    <edge id=":node_00x07_3" function="internal">
        <lane id=":node_00x07_3_0" index="0" disallow="tram rail_urban rail rail_electric ship" speed="13.89" length="10.29" shape="153.22,1157.90 155.07,1160.46 156.16,1162.87 156.48,1165.15 156.03,1167.29"/>
    </edge>
    <edge id=":node_00x07_4" function="internal">
        <lane id=":node_00x07_4_0" index="0" disallow="tram rail_urban rail rail_electric ship" speed="13.89" length="6.71" shape="152.97,1166.06 153.17,1164.83 152.86,1163.41 152.04,1161.82 150.70,1160.04"/>
    </edge>
    <edge id=":node_00x07_5" function="internal">
        <lane id=":node_00x07_5_0" index="0" disallow="tram rail_urban rail rail_electric ship" speed="13.89" length="9.66" shape="152.97,1166.06 154.08,1163.42 154.96,1161.68 156.00,1160.01 157.56,1157.60"/>
    </edge>
    <edge id=":node_00x08_0" function="internal">
        <lane id=":node_00x08_0_0" index="0" disallow="tram rail_urban rail rail_electric ship" speed="13.89" length="8.98" shape="115.05,1269.73 112.25,1278.26"/>
    </edge>
    <edge id=":node_00x08_1" function="internal">
        <lane id=":node_00x08_1_0" index="0" disallow="tram rail_urban rail rail_electric ship" speed="13.89" length="5.40" shape="115.05,1269.73 113.41,1272.58 111.66,1273.77"/>
    </edge>
    <edge id=":node_00x08_6" function="internal">
        <lane id=":node_00x08_6_0" index="0" speed="13.89" length="6.19" shape="111.66,1273.77 111.33,1273.99 108.83,1273.94 105.89,1272.44"/>
    </edge>
    <edge id=":node_00x08_2" function="internal">
        <lane id=":node_00x08_2_0" index="0" disallow="tram rail_urban rail rail_electric ship" speed="13.89" length="5.31" shape="107.80,1269.75 109.14,1270.43 110.28,1270.45 111.23,1269.81 111.99,1268.51"/>
    </edge>
    <edge id=":node_00x08_3" function="internal">
        <lane id=":node_00x08_3_0" index="0" disallow="tram rail_urban rail rail_electric ship" speed="13.89" length="10.21" shape="107.80,1269.75 110.13,1271.73 111.65,1273.81 112.36,1275.99 112.25,1278.26"/>
    </edge>
    <edge id=":node_00x08_4" function="internal">
        <lane id=":node_00x08_4_0" index="0" disallow="tram rail_urban rail rail_electric ship" speed="13.89" length="6.33" shape="109.03,1277.55 109.04,1276.29 108.52,1275.02 107.48,1273.74 105.89,1272.44"/>
    </edge>
    <edge id=":node_00x08_5" function="internal">
        <lane id=":node_00x08_5_0" index="0" disallow="tram rail_urban rail rail_electric ship" speed="13.89" length="9.54" shape="109.03,1277.55 109.68,1274.80 110.23,1272.94 110.92,1271.13 111.99,1268.51"/>
    </edge>
    <edge id=":node_00x09_0" function="internal">
        <lane id=":node_00x09_0_0" index="0" disallow="tram rail_urban rail rail_electric ship" speed="13.89" length="8.86" shape="88.01,1387.91 86.66,1396.67"/>
    </edge>
    <edge id=":node_00x09_1" function="internal">
        <lane id=":node_00x09_1_0" index="0" disallow="tram rail_urban rail rail_electric ship" speed="13.89" length="4.83" shape="88.01,1387.91 86.94,1390.74 85.66,1392.02"/>
    </edge>
    <edge id=":node_00x09_6" function="internal">
        <lane id=":node_00x09_6_0" index="0" speed="13.89" length="6.04" shape="85.66,1392.02 85.24,1392.45 82.90,1393.03 79.92,1392.49"/>
    </edge>
    <edge id=":node_00x09_2" function="internal">
        <lane id=":node_00x09_2_0" index="0" disallow="tram rail_urban rail rail_electric ship" speed="13.89" length="5.13" shape="80.97,1389.36 82.37,1389.62 83.48,1389.34 84.28,1388.53 84.78,1387.20"/>
    </edge>
    <edge id=":node_00x09_3" function="internal">
        <lane id=":node_00x09_3_0" index="0" disallow="tram rail_urban rail rail_electric ship" speed="13.89" length="10.06" shape="80.97,1389.36 83.60,1390.58 85.42,1392.20 86.44,1394.23 86.66,1396.67"/>
    </edge>
    <edge id=":node_00x09_4" function="internal">
        <lane id=":node_00x09_4_0" index="0" disallow="tram rail_urban rail rail_electric ship" speed="13.89" length="5.67" shape="83.36,1396.44 83.22,1395.17 82.60,1394.08 81.50,1393.19 79.92,1392.49"/>
    </edge>
    <edge id=":node_00x09_5" function="internal">
        <lane id=":node_00x09_5_0" index="0" disallow="tram rail_urban rail rail_electric ship" speed="13.89" length="9.35" shape="83.36,1396.44 84.78,1387.20"/>
    </edge>
    <edge id=":node_00x10_0" function="internal">
        <lane id=":node_00x10_0_0" index="0" disallow="tram rail_urban rail rail_electric ship" speed="13.89" length="4.92" shape="75.44,1518.43 75.16,1517.12 74.53,1516.19 73.56,1515.63 72.24,1515.45"/>
    </edge>
    <edge id=":node_00x10_1" function="internal">
        <lane id=":node_00x10_1_0" index="0" disallow="tram rail_urban rail rail_electric ship" speed="13.89" length="9.27" shape="75.44,1518.43 75.44,1509.16"/>
    </edge>
    <edge id=":node_00x10_2" function="internal">
        <lane id=":node_00x10_2_0" index="0" disallow="tram rail_urban rail rail_electric ship" speed="13.89" length="8.81" shape="78.73,1509.39 78.73,1518.20"/>
    </edge>
    <edge id=":node_00x10_3" function="internal">
        <lane id=":node_00x10_3_0" index="0" disallow="tram rail_urban rail rail_electric ship" speed="13.89" length="4.73" shape="78.73,1509.39 78.17,1512.04 77.04,1513.72"/>
    </edge>
    <edge id=":node_00x10_6" function="internal">
        <lane id=":node_00x10_6_0" index="0" speed="13.89" length="5.24" shape="77.04,1513.72 76.89,1513.93 74.92,1515.07 72.24,1515.45"/>
    </edge>
    <edge id=":node_00x10_4" function="internal">
        <lane id=":node_00x10_4_0" index="0" disallow="tram rail_urban rail rail_electric ship" speed="13.89" length="4.92" shape="72.24,1512.15 73.56,1511.96 74.53,1511.40 75.16,1510.47 75.44,1509.16"/>
    </edge>
    <edge id=":node_00x10_5" function="internal">
        <lane id=":node_00x10_5_0" index="0" disallow="tram rail_urban rail rail_electric ship" speed="13.89" length="9.97" shape="72.24,1512.15 74.92,1512.52 76.89,1513.66 78.17,1515.55 78.73,1518.20"/>
    </edge>
    <edge id=":node_00x11_0" function="internal">
        <lane id=":node_00x11_0_0" index="0" disallow="tram rail_urban rail rail_electric ship" speed="13.89" length="5.13" shape="84.78,1640.39 84.28,1639.06 83.48,1638.25 82.37,1637.98 80.97,1638.23"/>
    </edge>
    <edge id=":node_00x11_1" function="internal">
        <lane id=":node_00x11_1_0" index="0" disallow="tram rail_urban rail rail_electric ship" speed="13.89" length="9.35" shape="84.78,1640.39 83.36,1631.15"/>
    </edge>
    <edge id=":node_00x11_2" function="internal">
        <lane id=":node_00x11_2_0" index="0" disallow="tram rail_urban rail rail_electric ship" speed="13.89" length="8.86" shape="86.66,1630.92 88.01,1639.68"/>
    </edge>
    <edge id=":node_00x11_3" function="internal">
        <lane id=":node_00x11_3_0" index="0" disallow="tram rail_urban rail rail_electric ship" speed="13.89" length="4.35" shape="86.66,1630.92 86.44,1633.36 85.58,1635.06"/>
    </edge>
    <edge id=":node_00x11_6" function="internal">
        <lane id=":node_00x11_6_0" index="0" speed="13.89" length="5.70" shape="85.58,1635.06 85.42,1635.39 83.60,1637.01 80.97,1638.23"/>
    </edge>
    <edge id=":node_00x11_4" function="internal">
        <lane id=":node_00x11_4_0" index="0" disallow="tram rail_urban rail rail_electric ship" speed="13.89" length="5.67" shape="79.92,1635.10 81.50,1634.40 82.60,1633.51 83.22,1632.43 83.36,1631.15"/>
    </edge>
    <edge id=":node_00x11_5" function="internal">
        <lane id=":node_00x11_5_0" index="0" disallow="tram rail_urban rail rail_electric ship" speed="13.89" length="10.87" shape="79.92,1635.10 82.90,1634.56 85.24,1635.14 86.94,1636.85 88.01,1639.68"/>
    </edge>
    <edge id=":node_00x12_0" function="internal">
        <lane id=":node_00x12_0_0" index="0" disallow="tram rail_urban rail rail_electric ship" speed="13.89" length="5.31" shape="111.99,1759.09 111.23,1757.78 110.28,1757.14 109.14,1757.16 107.80,1757.84"/>
    </edge>
    <edge id=":node_00x12_1" function="internal">
        <lane id=":node_00x12_1_0" index="0" disallow="tram rail_urban rail rail_electric ship" speed="13.89" length="9.52" shape="111.99,1759.09 109.03,1750.04"/>
    </edge>
    <edge id=":node_00x12_2" function="internal">
        <lane id=":node_00x12_2_0" index="0" disallow="tram rail_urban rail rail_electric ship" speed="13.89" length="9.00" shape="112.25,1749.33 112.87,1751.92 113.39,1753.68 114.05,1755.39 115.05,1757.86"/>
    </edge>
    <edge id=":node_00x12_3" function="internal">
        <lane id=":node_00x12_3_0" index="0" disallow="tram rail_urban rail rail_electric ship" speed="13.89" length="4.11" shape="112.25,1749.33 112.36,1751.60 111.80,1753.35"/>
    </edge>
    <edge id=":node_00x12_6" function="internal">
        <lane id=":node_00x12_6_0" index="0" speed="13.89" length="6.10" shape="111.80,1753.35 111.65,1753.78 110.13,1755.86 107.80,1757.84"/>
    </edge>
    <edge id=":node_00x12_4" function="internal">
        <lane id=":node_00x12_4_0" index="0" disallow="tram rail_urban rail rail_electric ship" speed="13.89" length="6.33" shape="105.89,1755.15 107.48,1753.85 108.52,1752.57 109.04,1751.30 109.03,1750.04"/>
    </edge>
    <edge id=":node_00x12_5" function="internal">
        <lane id=":node_00x12_5_0" index="0" disallow="tram rail_urban rail rail_electric ship" speed="13.89" length="11.59" shape="105.89,1755.15 108.83,1753.65 111.33,1753.61 113.41,1755.01 115.05,1757.86"/>
    </edge>
    <edge id=":node_00x13_0" function="internal">
        <lane id=":node_00x13_0_0" index="0" disallow="tram rail_urban rail rail_electric ship" speed="13.89" length="5.40" shape="157.56,1869.99 156.55,1868.81 155.49,1868.37 154.38,1868.66 153.22,1869.69"/>
    </edge>
    <edge id=":node_00x13_1" function="internal">
        <lane id=":node_00x13_1_0" index="0" disallow="tram rail_urban rail rail_electric ship" speed="13.89" length="9.63" shape="157.56,1869.99 152.97,1861.53"/>
    </edge>
    <edge id=":node_00x13_2" function="internal">
        <lane id=":node_00x13_2_0" index="0" disallow="tram rail_urban rail rail_electric ship" speed="13.89" length="9.04" shape="156.03,1860.31 157.07,1862.77 157.91,1864.41 158.88,1865.97 160.35,1868.22"/>
    </edge>
    <edge id=":node_00x13_3" function="internal">
        <lane id=":node_00x13_3_0" index="0" disallow="tram rail_urban rail rail_electric ship" speed="13.89" length="3.94" shape="156.03,1860.31 156.48,1862.44 156.23,1864.19"/>
    </edge>
    <edge id=":node_00x13_6" function="internal">
        <lane id=":node_00x13_6_0" index="0" speed="13.89" length="6.34" shape="156.23,1864.19 156.16,1864.72 155.07,1867.14 153.22,1869.69"/>
    </edge>
    <edge id=":node_00x13_4" function="internal">
        <lane id=":node_00x13_4_0" index="0" disallow="tram rail_urban rail rail_electric ship" speed="13.89" length="6.71" shape="150.70,1867.55 152.04,1865.78 152.86,1864.18 153.17,1862.77 152.97,1861.53"/>
    </edge>
    <edge id=":node_00x13_5" function="internal">
        <lane id=":node_00x13_5_0" index="0" disallow="tram rail_urban rail rail_electric ship" speed="13.89" length="11.99" shape="150.70,1867.55 153.28,1865.27 155.75,1864.62 158.10,1865.61 160.35,1868.22"/>
    </edge>
    <edge id=":node_00x14_0" function="internal">
        <lane id=":node_00x14_0_0" index="0" disallow="tram rail_urban rail rail_electric ship" speed="13.89" length="6.75" shape="218.94,1971.41 218.13,1969.39 217.19,1968.64 216.10,1969.17 214.88,1970.96"/>
    </edge>
    <edge id=":node_00x14_1" function="internal">
        <lane id=":node_00x14_1_0" index="0" disallow="tram rail_urban rail rail_electric ship" speed="13.89" length="12.43" shape="218.94,1971.41 214.75,1959.71"/>
    </edge>
    <edge id=":node_00x14_2" function="internal">
        <lane id=":node_00x14_2_0" index="0" disallow="tram rail_urban rail rail_electric ship" speed="13.89" length="13.47" shape="217.53,1957.93 219.19,1961.00 220.33,1964.01 221.22,1967.12 222.12,1970.53"/>
    </edge>
    <edge id=":node_00x14_3" function="internal">
        <lane id=":node_00x14_3_0" index="0" disallow="tram rail_urban rail rail_electric ship" speed="13.89" length="5.85" shape="217.53,1957.93 218.24,1960.13 218.04,1963.03 217.85,1963.63"/>
    </edge>
    <edge id=":node_00x14_6" function="internal">
        <lane id=":node_00x14_6_0" index="0" speed="13.89" length="7.92" shape="217.85,1963.63 216.92,1966.64 214.88,1970.96"/>
    </edge>
    <edge id=":node_00x14_4" function="internal">
        <lane id=":node_00x14_4_0" index="0" disallow="tram rail_urban rail rail_electric ship" speed="13.89" length="10.34" shape="211.97,1969.40 213.67,1965.93 214.71,1963.16 215.06,1961.08 214.75,1959.71"/>
    </edge>
    <edge id=":node_00x14_5" function="internal">
        <lane id=":node_00x14_5_0" index="0" disallow="tram rail_urban rail rail_electric ship" speed="13.89" length="16.88" shape="211.97,1969.40 215.04,1964.92 217.75,1963.62 220.11,1965.49 222.12,1970.53"/>
    </edge>
    <edge id=":node_00x15_0" function="internal">
        <lane id=":node_00x15_0_0" index="0" disallow="tram rail_urban rail rail_electric ship" speed="13.89" length="3.00" shape="251.78,2090.23 250.93,2087.35"/>
    </edge>
    <edge id=":node_00x15_1" function="internal">
        <lane id=":node_00x15_1_0" index="0" disallow="tram rail_urban rail rail_electric ship" speed="13.89" length="82.12" shape="251.78,2090.23 242.87,2060.80 240.43,2050.82 244.47,2060.30 254.99,2089.23"/>
    </edge>
    <edge id=":node_00x15_2" function="internal">
        <lane id=":node_00x15_2_0" index="0" disallow="tram rail_urban rail rail_electric ship" speed="13.89" length="3.00" shape="251.84,2090.21 250.93,2087.35"/>
    </edge>
    <edge id=":node_00x15_3" function="internal">
        <lane id=":node_00x15_3_0" index="0" disallow="tram rail_urban rail rail_electric ship" speed="13.89" length="3.24" shape="251.84,2090.21 254.93,2089.25"/>
    </edge>
    <edge id=":node_00x15_4" function="internal">
        <lane id=":node_00x15_4_0" index="0" disallow="tram rail_urban rail rail_electric ship" speed="13.89" length="2.90" shape="254.12,2086.47 254.99,2089.23"/>
    </edge>
    <edge id=":node_00x15_5" function="internal">
        <lane id=":node_00x15_5_0" index="0" disallow="tram rail_urban rail rail_electric ship" speed="13.89" length="2.90" shape="254.12,2086.47 254.93,2089.25"/>
    </edge>
    <edge id=":node_00x16_0" function="internal">
        <lane id=":node_00x16_0_0" index="0" disallow="tram rail_urban rail rail_electric ship" speed="13.89" length="2.72" shape="294.33,2209.30 293.30,2206.79"/>
    </edge>
    <edge id=":node_00x16_1" function="internal">
        <lane id=":node_00x16_1_0" index="0" disallow="tram rail_urban rail rail_electric ship" speed="13.89" length="3.34" shape="294.33,2209.30 297.35,2207.90"/>
    </edge>
    <edge id=":node_00x16_2" function="internal">
        <lane id=":node_00x16_2_0" index="0" disallow="tram rail_urban rail rail_electric ship" speed="13.89" length="2.41" shape="296.41,2205.68 297.35,2207.90"/>
    </edge>
    <edge id=":node_00x16_3" function="internal">
        <lane id=":node_00x16_3_0" index="0" disallow="tram rail_urban rail rail_electric ship" speed="13.89" length="2.41" shape="296.41,2205.68 297.32,2207.91"/>
    </edge>
    <edge id=":node_00x16_4" function="internal">
        <lane id=":node_00x16_4_0" index="0" disallow="tram rail_urban rail rail_electric ship" speed="13.89" length="2.72" shape="294.36,2209.29 293.30,2206.79"/>
    </edge>
    <edge id=":node_00x16_5" function="internal">
        <lane id=":node_00x16_5_0" index="0" disallow="tram rail_urban rail rail_electric ship" speed="13.89" length="3.27" shape="294.36,2209.29 297.32,2207.91"/>
    </edge>
    <edge id=":node_00x17_0" function="internal">
        <lane id=":node_00x17_0_0" index="0" disallow="tram rail_urban rail rail_electric ship" speed="13.89" length="2.73" shape="345.45,2311.55 344.12,2309.16"/>
    </edge>
    <edge id=":node_00x17_1" function="internal">
        <lane id=":node_00x17_1_0" index="0" disallow="tram rail_urban rail rail_electric ship" speed="13.89" length="3.32" shape="345.45,2311.55 348.27,2309.80"/>
    </edge>
    <edge id=":node_00x17_2" function="internal">
        <lane id=":node_00x17_2_0" index="0" disallow="tram rail_urban rail rail_electric ship" speed="13.89" length="2.43" shape="347.07,2307.69 348.27,2309.80"/>
    </edge>
    <edge id=":node_00x17_3" function="internal">
        <lane id=":node_00x17_3_0" index="0" disallow="tram rail_urban rail rail_electric ship" speed="13.89" length="2.44" shape="347.07,2307.69 348.25,2309.82"/>
    </edge>
    <edge id=":node_00x17_4" function="internal">
        <lane id=":node_00x17_4_0" index="0" disallow="tram rail_urban rail rail_electric ship" speed="13.89" length="2.73" shape="345.47,2311.54 344.12,2309.16"/>
    </edge>
    <edge id=":node_00x17_5" function="internal">
        <lane id=":node_00x17_5_0" index="0" disallow="tram rail_urban rail rail_electric ship" speed="13.89" length="3.28" shape="345.47,2311.54 348.25,2309.82"/>
    </edge>
    <edge id=":node_00x18_0" function="internal">
        <lane id=":node_00x18_0_0" index="0" disallow="tram rail_urban rail rail_electric ship" speed="13.89" length="2.77" shape="400.19,2396.63 398.60,2394.37"/>
    </edge>
    <edge id=":node_00x18_1" function="internal">
        <lane id=":node_00x18_1_0" index="0" disallow="tram rail_urban rail rail_electric ship" speed="13.89" length="3.31" shape="400.19,2396.63 402.81,2394.61"/>
    </edge>
    <edge id=":node_00x18_2" function="internal">
        <lane id=":node_00x18_2_0" index="0" disallow="tram rail_urban rail rail_electric ship" speed="13.89" length="2.48" shape="401.37,2392.59 402.81,2394.61"/>
    </edge>
    <edge id=":node_00x18_3" function="internal">
        <lane id=":node_00x18_3_0" index="0" disallow="tram rail_urban rail rail_electric ship" speed="13.89" length="2.48" shape="401.37,2392.59 402.80,2394.62"/>
    </edge>
    <edge id=":node_00x18_4" function="internal">
        <lane id=":node_00x18_4_0" index="0" disallow="tram rail_urban rail rail_electric ship" speed="13.89" length="2.77" shape="400.20,2396.63 398.60,2394.37"/>
    </edge>
    <edge id=":node_00x18_5" function="internal">