<?xml version="1.0" encoding="UTF-8"?>

<!-- generated on 02/15/17 22:57:22 by SUMO netconvert Version 0.27.1
<?xml version="1.0" encoding="UTF-8"?>

<configuration xmlns:xsi="http://www.w3.org/2001/XMLSchema-instance" xsi:noNamespaceSchemaLocation="http://sumo.dlr.de/xsd/netconvertConfiguration.xsd">

    <input>
        <node-files value="C:\Users\zs633\capstone\10_spherical\test_random0\7_displaced\spherical.nod.xml"/>
        <edge-files value="C:\Users\zs633\capstone\10_spherical\test_random0\7_displaced\spherical.edg.xml"/>
        <connection-files value="C:\Users\zs633\capstone\10_spherical\test_random0\4_plain\test.con.xml"/>
        <tllogic-files value="C:\Users\zs633\capstone\10_spherical\test_random0\4_plain\test.tll.xml"/>
    </input>

    <output>
        <output-file value="C:\Users\zs633\capstone\10_spherical\test_random0\9_output_net\spherical.net.xml"/>
    </output>

    <processing>
        <ignore-errors value="true"/>
        <ignore-errors.edge-type value="true"/>
    </processing>

    <report>
        <verbose value="true"/>
        <xml-validation value="never"/>
        <no-warnings value="true"/>
    </report>

</configuration>
-->

<net version="0.27" xmlns:xsi="http://www.w3.org/2001/XMLSchema-instance" xsi:noNamespaceSchemaLocation="http://sumo.dlr.de/xsd/net_file.xsd">

    <location netOffset="36.08,36.14" convBoundary="0.00,0.00,2075.14,2071.01" origBoundary="-36.08,-36.14,2039.06,2034.87" projParameter="!"/>

    <edge id=":node_00x00_0" function="internal">
        <lane id=":node_00x00_0_0" index="0" disallow="tram rail_urban rail rail_electric ship" speed="13.89" length="7.97" shape="0.27,10.63 0.53,8.45 1.42,6.89 2.95,5.95 5.11,5.61"/>
    </edge>
    <edge id=":node_00x00_1" function="internal">
        <lane id=":node_00x00_1_0" index="0" disallow="tram rail_urban rail rail_electric ship" speed="13.89" length="2.60" shape="5.15,8.91 4.44,9.02 3.94,9.33 3.65,9.84 3.57,10.55"/>
    </edge>
    <edge id=":node_00x01_0" function="internal">
        <lane id=":node_00x01_0_0" index="0" disallow="tram rail_urban rail rail_electric ship" speed="13.89" length="9.45" shape="3.18,140.13 3.02,130.68"/>
    </edge>
    <edge id=":node_00x01_1" function="internal">
        <lane id=":node_00x01_1_0" index="0" disallow="tram rail_urban rail rail_electric ship" speed="13.89" length="10.49" shape="3.18,140.13 3.56,137.26 4.76,135.24 6.80,134.05 9.67,133.70"/>
    </edge>
    <edge id=":node_00x01_2" function="internal">
        <lane id=":node_00x01_2_0" index="0" disallow="tram rail_urban rail rail_electric ship" speed="13.89" length="5.04" shape="9.60,137.00 8.22,137.17 7.24,137.74 6.66,138.71 6.48,140.09"/>
    </edge>
    <edge id=":node_00x01_3" function="internal">
        <lane id=":node_00x01_3_0" index="0" disallow="tram rail_urban rail rail_electric ship" speed="13.89" length="10.31" shape="9.60,137.00 6.77,136.55 4.73,135.35 3.48,133.39 3.02,130.68"/>
    </edge>
    <edge id=":node_00x01_4" function="internal">
        <lane id=":node_00x01_4_0" index="0" disallow="tram rail_urban rail rail_electric ship" speed="13.89" length="5.15" shape="6.32,130.60 6.55,131.93 7.19,132.89 8.23,133.48 9.67,133.70"/>
    </edge>
    <edge id=":node_00x01_5" function="internal">
        <lane id=":node_00x01_5_0" index="0" disallow="tram rail_urban rail rail_electric ship" speed="13.89" length="9.49" shape="6.32,130.60 6.48,140.09"/>
    </edge>
    <edge id=":node_00x02_0" function="internal">
        <lane id=":node_00x02_0_0" index="0" disallow="tram rail_urban rail rail_electric ship" speed="13.89" length="9.69" shape="4.65,241.52 4.34,231.83"/>
    </edge>
    <edge id=":node_00x02_1" function="internal">
        <lane id=":node_00x02_1_0" index="0" disallow="tram rail_urban rail rail_electric ship" speed="13.89" length="10.77" shape="4.65,241.52 4.93,238.55 6.11,236.46 8.18,235.26 11.15,234.94"/>
    </edge>
    <edge id=":node_00x02_2" function="internal">
        <lane id=":node_00x02_2_0" index="0" disallow="tram rail_urban rail rail_electric ship" speed="13.89" length="5.11" shape="11.03,238.24 9.62,238.39 8.64,238.96 8.08,239.95 7.95,241.36"/>
    </edge>
    <edge id=":node_00x02_3" function="internal">
        <lane id=":node_00x02_3_0" index="0" disallow="tram rail_urban rail rail_electric ship" speed="13.89" length="10.44" shape="11.03,238.24 8.13,237.74 6.05,236.51 4.79,234.54 4.34,231.83"/>
    </edge>
    <edge id=":node_00x02_4" function="internal">
        <lane id=":node_00x02_4_0" index="0" disallow="tram rail_urban rail rail_electric ship" speed="13.89" length="5.31" shape="7.64,231.79 7.88,233.12 8.54,234.09 9.63,234.69 11.15,234.94"/>
    </edge>
    <edge id=":node_00x02_5" function="internal">
        <lane id=":node_00x02_5_0" index="0" disallow="tram rail_urban rail rail_electric ship" speed="13.89" length="9.57" shape="7.64,231.79 7.95,241.36"/>
    </edge>
    <edge id=":node_00x03_0" function="internal">
        <lane id=":node_00x03_0_0" index="0" disallow="tram rail_urban rail rail_electric ship" speed="13.89" length="9.28" shape="9.56,345.98 9.33,336.70"/>
    </edge>
    <edge id=":node_00x03_1" function="internal">
        <lane id=":node_00x03_1_0" index="0" disallow="tram rail_urban rail rail_electric ship" speed="13.89" length="10.51" shape="9.56,345.98 9.97,343.12 11.19,341.10 13.25,339.94 16.12,339.62"/>
    </edge>
    <edge id=":node_00x03_2" function="internal">
        <lane id=":node_00x03_2_0" index="0" disallow="tram rail_urban rail rail_electric ship" speed="13.89" length="5.04" shape="16.01,342.92 14.63,343.07 13.65,343.63 13.06,344.60 12.86,345.97"/>
    </edge>
    <edge id=":node_00x03_3" function="internal">
        <lane id=":node_00x03_3_0" index="0" disallow="tram rail_urban rail rail_electric ship" speed="13.89" length="10.22" shape="16.01,342.92 13.20,342.45 11.15,341.26 9.86,339.34 9.33,336.70"/>
    </edge>
    <edge id=":node_00x03_4" function="internal">
        <lane id=":node_00x03_4_0" index="0" disallow="tram rail_urban rail rail_electric ship" speed="13.89" length="5.22" shape="12.63,336.54 12.90,337.85 13.58,338.80 14.65,339.39 16.12,339.62"/>
    </edge>
    <edge id=":node_00x03_5" function="internal">
        <lane id=":node_00x03_5_0" index="0" disallow="tram rail_urban rail rail_electric ship" speed="13.89" length="9.44" shape="12.63,336.54 12.86,345.97"/>
    </edge>
    <edge id=":node_00x04_0" function="internal">
        <lane id=":node_00x04_0_0" index="0" disallow="tram rail_urban rail rail_electric ship" speed="13.89" length="5.35" shape="16.44,436.09 14.90,436.35 13.77,436.95 13.04,437.89 12.71,439.16"/>
    </edge>
    <edge id=":node_00x04_1" function="internal">
        <lane id=":node_00x04_1_0" index="0" disallow="tram rail_urban rail rail_electric ship" speed="13.89" length="10.60" shape="16.44,436.09 13.53,435.83 11.44,434.70 10.19,432.69 9.77,429.79"/>
    </edge>
    <edge id=":node_00x04_2" function="internal">
        <lane id=":node_00x04_2_0" index="0" disallow="tram rail_urban rail rail_electric ship" speed="13.89" length="5.07" shape="13.07,429.78 13.27,431.17 13.87,432.13 14.86,432.67 16.26,432.79"/>
    </edge>
    <edge id=":node_00x04_3" function="internal">
        <lane id=":node_00x04_3_0" index="0" disallow="tram rail_urban rail rail_electric ship" speed="13.89" length="9.39" shape="13.07,429.78 12.71,439.16"/>
    </edge>
    <edge id=":node_00x04_4" function="internal">
        <lane id=":node_00x04_4_0" index="0" disallow="tram rail_urban rail rail_electric ship" speed="13.89" length="9.11" shape="9.42,438.89 9.77,429.79"/>
    </edge>
    <edge id=":node_00x04_5" function="internal">
        <lane id=":node_00x04_5_0" index="0" disallow="tram rail_urban rail rail_electric ship" speed="13.89" length="10.15" shape="9.42,438.89 10.03,436.36 11.37,434.50 13.45,433.31 16.26,432.79"/>
    </edge>
    <edge id=":node_00x05_0" function="internal">
        <lane id=":node_00x05_0_0" index="0" disallow="tram rail_urban rail rail_electric ship" speed="13.89" length="10.02" shape="0.73,547.35 1.20,537.34"/>
    </edge>
    <edge id=":node_00x05_1" function="internal">
        <lane id=":node_00x05_1_0" index="0" disallow="tram rail_urban rail rail_electric ship" speed="13.89" length="10.68" shape="0.73,547.35 1.16,544.76 2.46,542.77 4.62,541.40 7.65,540.63"/>
    </edge>
    <edge id=":node_00x05_2" function="internal">
        <lane id=":node_00x05_2_0" index="0" disallow="tram rail_urban rail rail_electric ship" speed="13.89" length="5.87" shape="8.09,543.90 6.31,544.32 5.04,545.04 4.28,546.04 4.03,547.35"/>
    </edge>
    <edge id=":node_00x05_3" function="internal">
        <lane id=":node_00x05_3_0" index="0" disallow="tram rail_urban rail rail_electric ship" speed="13.89" length="11.49" shape="8.09,543.90 4.84,543.87 2.60,542.77 1.39,540.59 1.20,537.34"/>
    </edge>
    <edge id=":node_00x05_4" function="internal">
        <lane id=":node_00x05_4_0" index="0" disallow="tram rail_urban rail rail_electric ship" speed="13.89" length="5.28" shape="4.48,537.62 4.57,539.11 5.13,540.11 6.16,540.62 7.65,540.63"/>
    </edge>
    <edge id=":node_00x05_5" function="internal">
        <lane id=":node_00x05_5_0" index="0" disallow="tram rail_urban rail rail_electric ship" speed="13.89" length="9.74" shape="4.48,537.62 4.03,547.35"/>
    </edge>
    <edge id=":node_00x06_0" function="internal">
        <lane id=":node_00x06_0_0" index="0" disallow="tram rail_urban rail rail_electric ship" speed="13.89" length="9.57" shape="0.78,645.56 0.74,635.98"/>
    </edge>
    <edge id=":node_00x06_1" function="internal">
        <lane id=":node_00x06_1_0" index="0" disallow="tram rail_urban rail rail_electric ship" speed="13.89" length="10.39" shape="0.78,645.56 1.17,642.91 2.38,640.91 4.43,639.59 7.30,638.93"/>
    </edge>
    <edge id=":node_00x06_2" function="internal">
        <lane id=":node_00x06_2_0" index="0" disallow="tram rail_urban rail rail_electric ship" speed="13.89" length="5.42" shape="7.63,642.21 6.07,642.55 4.96,643.22 4.30,644.21 4.08,645.53"/>
    </edge>
    <edge id=":node_00x06_3" function="internal">
        <lane id=":node_00x06_3_0" index="0" disallow="tram rail_urban rail rail_electric ship" speed="13.89" length="10.84" shape="7.63,642.21 4.62,642.08 2.46,641.00 1.17,638.97 0.74,635.98"/>
    </edge>
    <edge id=":node_00x06_4" function="internal">
        <lane id=":node_00x06_4_0" index="0" disallow="tram rail_urban rail rail_electric ship" speed="13.89" length="5.12" shape="4.04,635.98 4.25,637.39 4.86,638.35 5.87,638.86 7.30,638.93"/>
    </edge>
    <edge id=":node_00x06_5" function="internal">
        <lane id=":node_00x06_5_0" index="0" disallow="tram rail_urban rail rail_electric ship" speed="13.89" length="9.54" shape="4.04,635.98 4.08,645.53"/>
    </edge>
    <edge id=":node_00x07_0" function="internal">
        <lane id=":node_00x07_0_0" index="0" disallow="tram rail_urban rail rail_electric ship" speed="13.89" length="9.54" shape="1.72,742.53 1.60,732.99"/>
    </edge>
    <edge id=":node_00x07_1" function="internal">
        <lane id=":node_00x07_1_0" index="0" disallow="tram rail_urban rail rail_electric ship" speed="13.89" length="10.52" shape="1.72,742.53 2.08,739.65 3.28,737.62 5.32,736.43 8.20,736.08"/>
    </edge>
    <edge id=":node_00x07_2" function="internal">
        <lane id=":node_00x07_2_0" index="0" disallow="tram rail_urban rail rail_electric ship" speed="13.89" length="5.05" shape="8.13,739.38 6.75,739.54 5.77,740.12 5.20,741.09 5.02,742.47"/>
    </edge>
    <edge id=":node_00x07_3" function="internal">
        <lane id=":node_00x07_3_0" index="0" disallow="tram rail_urban rail rail_electric ship" speed="13.89" length="10.35" shape="8.13,739.38 5.29,738.93 3.26,737.71 2.03,735.73 1.60,732.99"/>
    </edge>
    <edge id=":node_00x07_4" function="internal">
        <lane id=":node_00x07_4_0" index="0" disallow="tram rail_urban rail rail_electric ship" speed="13.89" length="5.15" shape="4.90,732.96 5.11,734.30 5.74,735.26 6.76,735.86 8.20,736.08"/>
    </edge>
    <edge id=":node_00x07_5" function="internal">
        <lane id=":node_00x07_5_0" index="0" disallow="tram rail_urban rail rail_electric ship" speed="13.89" length="9.52" shape="4.90,732.96 5.02,742.47"/>
    </edge>
    <edge id=":node_00x08_0" function="internal">
        <lane id=":node_00x08_0_0" index="0" disallow="tram rail_urban rail rail_electric ship" speed="13.89" length="4.98" shape="9.66,841.09 8.31,841.24 7.32,841.78 6.70,842.72 6.43,844.05"/>
    </edge>
    <edge id=":node_00x08_1" function="internal">
        <lane id=":node_00x08_1_0" index="0" disallow="tram rail_urban rail rail_electric ship" speed="13.89" length="10.15" shape="9.66,841.09 6.92,840.61 4.95,839.39 3.74,837.43 3.31,834.72"/>
    </edge>
    <edge id=":node_00x08_2" function="internal">
        <lane id=":node_00x08_2_0" index="0" disallow="tram rail_urban rail rail_electric ship" speed="13.89" length="5.02" shape="6.61,834.67 6.83,835.99 7.43,836.96 8.41,837.56 9.78,837.79"/>
    </edge>
    <edge id=":node_00x08_3" function="internal">
        <lane id=":node_00x08_3_0" index="0" disallow="tram rail_urban rail rail_electric ship" speed="13.89" length="9.39" shape="6.61,834.67 6.43,844.05"/>
    </edge>
    <edge id=":node_00x08_4" function="internal">
        <lane id=":node_00x08_4_0" index="0" disallow="tram rail_urban rail rail_electric ship" speed="13.89" length="9.15" shape="3.14,843.87 3.31,834.72"/>
    </edge>
    <edge id=":node_00x08_5" function="internal">
        <lane id=":node_00x08_5_0" index="0" disallow="tram rail_urban rail rail_electric ship" speed="13.89" length="10.23" shape="3.14,843.87 3.68,841.13 4.97,839.20 7.00,838.09 9.78,837.79"/>
    </edge>
    <edge id=":node_00x09_0" function="internal">
        <lane id=":node_00x09_0_0" index="0" disallow="tram rail_urban rail rail_electric ship" speed="13.89" length="9.80" shape="-1.65,937.24 -1.37,927.45"/>
    </edge>
    <edge id=":node_00x09_1" function="internal">
        <lane id=":node_00x09_1_0" index="0" disallow="tram rail_urban rail rail_electric ship" speed="13.89" length="10.51" shape="-1.65,937.24 -1.23,934.55 0.02,932.57 2.12,931.28 5.05,930.70"/>
    </edge>
    <edge id=":node_00x09_2" function="internal">
        <lane id=":node_00x09_2_0" index="0" disallow="tram rail_urban rail rail_electric ship" speed="13.89" length="5.45" shape="5.27,934.00 3.69,934.29 2.56,934.93 1.88,935.91 1.65,937.24"/>
    </edge>
    <edge id=":node_00x09_3" function="internal">
        <lane id=":node_00x09_3_0" index="0" disallow="tram rail_urban rail rail_electric ship" speed="13.89" length="10.96" shape="5.27,934.00 2.22,933.77 0.10,932.60 -1.10,930.49 -1.37,927.45"/>
    </edge>
    <edge id=":node_00x09_4" function="internal">
        <lane id=":node_00x09_4_0" index="0" disallow="tram rail_urban rail rail_electric ship" speed="13.89" length="5.15" shape="1.93,927.62 2.05,929.06 2.62,930.05 3.62,930.59 5.05,930.70"/>
    </edge>
    <edge id=":node_00x09_5" function="internal">
        <lane id=":node_00x09_5_0" index="0" disallow="tram rail_urban rail rail_electric ship" speed="13.89" length="9.62" shape="1.93,927.62 1.65,937.24"/>
    </edge>
    <edge id=":node_00x10_0" function="internal">
        <lane id=":node_00x10_0_0" index="0" disallow="tram rail_urban rail rail_electric ship" speed="13.89" length="9.58" shape="-1.53,1045.53 -1.60,1035.95"/>
    </edge>
    <edge id=":node_00x10_1" function="internal">
        <lane id=":node_00x10_1_0" index="0" disallow="tram rail_urban rail rail_electric ship" speed="13.89" length="10.37" shape="-1.53,1045.53 -1.16,1042.79 0.03,1040.78 2.05,1039.51 4.89,1038.97"/>
    </edge>
    <edge id=":node_00x10_2" function="internal">
        <lane id=":node_00x10_2_0" index="0" disallow="tram rail_urban rail rail_electric ship" speed="13.89" length="5.20" shape="5.06,1042.26 3.61,1042.53 2.57,1043.16 1.96,1044.14 1.77,1045.48"/>
    </edge>
    <edge id=":node_00x10_3" function="internal">
        <lane id=":node_00x10_3_0" index="0" disallow="tram rail_urban rail rail_electric ship" speed="13.89" length="10.59" shape="5.06,1042.26 2.15,1042.00 0.07,1040.87 -1.18,1038.85 -1.60,1035.95"/>
    </edge>
    <edge id=":node_00x10_4" function="internal">
        <lane id=":node_00x10_4_0" index="0" disallow="tram rail_urban rail rail_electric ship" speed="13.89" length="5.06" shape="1.70,1035.95 1.90,1037.34 2.50,1038.30 3.49,1038.84 4.89,1038.97"/>
    </edge>
    <edge id=":node_00x10_5" function="internal">
        <lane id=":node_00x10_5_0" index="0" disallow="tram rail_urban rail rail_electric ship" speed="13.89" length="9.53" shape="1.70,1035.95 1.77,1045.48"/>
    </edge>
    <edge id=":node_00x11_0" function="internal">
        <lane id=":node_00x11_0_0" index="0" disallow="tram rail_urban rail rail_electric ship" speed="13.89" length="9.73" shape="0.17,1147.62 -0.18,1137.90"/>
    </edge>
    <edge id=":node_00x11_1" function="internal">
        <lane id=":node_00x11_1_0" index="0" disallow="tram rail_urban rail rail_electric ship" speed="13.89" length="10.90" shape="0.17,1147.62 0.44,1144.59 1.63,1142.49 3.73,1141.30 6.76,1141.04"/>
    </edge>
    <edge id=":node_00x11_2" function="internal">
        <lane id=":node_00x11_2_0" index="0" disallow="tram rail_urban rail rail_electric ship" speed="13.89" length="5.14" shape="6.57,1144.34 5.14,1144.46 4.15,1145.02 3.59,1146.01 3.47,1147.43"/>
    </edge>
    <edge id=":node_00x11_3" function="internal">
        <lane id=":node_00x11_3_0" index="0" disallow="tram rail_urban rail rail_electric ship" speed="13.89" length="10.47" shape="6.57,1144.34 3.65,1143.79 1.55,1142.54 0.28,1140.57 -0.18,1137.90"/>
    </edge>
    <edge id=":node_00x11_4" function="internal">
        <lane id=":node_00x11_4_0" index="0" disallow="tram rail_urban rail rail_electric ship" speed="13.89" length="5.42" shape="3.12,1137.85 3.37,1139.17 4.05,1140.14 5.18,1140.77 6.76,1141.04"/>
    </edge>
    <edge id=":node_00x11_5" function="internal">
        <lane id=":node_00x11_5_0" index="0" disallow="tram rail_urban rail rail_electric ship" speed="13.89" length="9.59" shape="3.12,1137.85 3.47,1147.43"/>
    </edge>
    <edge id=":node_00x12_0" function="internal">
        <lane id=":node_00x12_0_0" index="0" disallow="tram rail_urban rail rail_electric ship" speed="13.89" length="9.53" shape="4.49,1228.91 4.12,1219.39"/>
    </edge>
    <edge id=":node_00x12_1" function="internal">
        <lane id=":node_00x12_1_0" index="0" disallow="tram rail_urban rail rail_electric ship" speed="13.89" length="11.43" shape="4.49,1228.91 4.86,1225.70 6.19,1223.59 8.46,1222.60 11.70,1222.71"/>
    </edge>
    <edge id=":node_00x12_2" function="internal">
        <lane id=":node_00x12_2_0" index="0" disallow="tram rail_urban rail rail_electric ship" speed="13.89" length="5.27" shape="11.11,1225.96 9.62,1225.91 8.57,1226.37 7.96,1227.34 7.79,1228.82"/>
    </edge>
    <edge id=":node_00x12_3" function="internal">
        <lane id=":node_00x12_3_0" index="0" disallow="tram rail_urban rail rail_electric ship" speed="13.89" length="10.44" shape="11.11,1225.96 8.16,1225.10 6.01,1223.72 4.66,1221.81 4.12,1219.39"/>
    </edge>
    <edge id=":node_00x12_4" function="internal">
        <lane id=":node_00x12_4_0" index="0" disallow="tram rail_urban rail rail_electric ship" speed="13.89" length="5.99" shape="7.41,1219.21 7.74,1220.46 8.56,1221.47 9.88,1222.22 11.70,1222.71"/>
    </edge>
    <edge id=":node_00x12_5" function="internal">
        <lane id=":node_00x12_5_0" index="0" disallow="tram rail_urban rail rail_electric ship" speed="13.89" length="9.61" shape="7.41,1219.21 7.79,1228.82"/>
    </edge>
    <edge id=":node_00x13_0" function="internal">
        <lane id=":node_00x13_0_0" index="0" disallow="tram rail_urban rail rail_electric ship" speed="13.89" length="5.07" shape="14.06,1341.03 12.66,1341.25 11.66,1341.84 11.03,1342.80 10.80,1344.12"/>
    </edge>
    <edge id=":node_00x13_1" function="internal">
        <lane id=":node_00x13_1_0" index="0" disallow="tram rail_urban rail rail_electric ship" speed="13.89" length="10.31" shape="14.06,1341.03 11.25,1340.70 9.22,1339.55 7.97,1337.59 7.49,1334.81"/>
    </edge>
    <edge id=":node_00x13_2" function="internal">
        <lane id=":node_00x13_2_0" index="0" disallow="tram rail_urban rail rail_electric ship" speed="13.89" length="5.00" shape="10.79,1334.71 11.02,1336.06 11.63,1337.01 12.61,1337.57 13.97,1337.73"/>
    </edge>
    <edge id=":node_00x13_3" function="internal">
        <lane id=":node_00x13_3_0" index="0" disallow="tram rail_urban rail rail_electric ship" speed="13.89" length="9.41" shape="10.79,1334.71 10.80,1344.12"/>
    </edge>
    <edge id=":node_00x13_4" function="internal">
        <lane id=":node_00x13_4_0" index="0" disallow="tram rail_urban rail rail_electric ship" speed="13.89" length="9.23" shape="7.50,1344.03 7.49,1334.81"/>
    </edge>
    <edge id=":node_00x13_5" function="internal">
        <lane id=":node_00x13_5_0" index="0" disallow="tram rail_urban rail rail_electric ship" speed="13.89" length="10.19" shape="7.50,1344.03 7.97,1341.33 9.20,1339.38 11.21,1338.18 13.97,1337.73"/>
    </edge>
    <edge id=":node_00x14_0" function="internal">
        <lane id=":node_00x14_0_0" index="0" disallow="tram rail_urban rail rail_electric ship" speed="13.89" length="9.81" shape="5.22,1438.18 5.18,1428.37"/>
    </edge>
    <edge id=":node_00x14_1" function="internal">
        <lane id=":node_00x14_1_0" index="0" disallow="tram rail_urban rail rail_electric ship" speed="13.89" length="10.67" shape="5.22,1438.18 5.54,1435.24 6.73,1433.18 8.79,1431.98 11.73,1431.66"/>
    </edge>
    <edge id=":node_00x14_2" function="internal">
        <lane id=":node_00x14_2_0" index="0" disallow="tram rail_urban rail rail_electric ship" speed="13.89" length="5.08" shape="11.62,1434.96 10.22,1435.11 9.24,1435.68 8.67,1436.67 8.52,1438.06"/>
    </edge>
    <edge id=":node_00x14_3" function="internal">
        <lane id=":node_00x14_3_0" index="0" disallow="tram rail_urban rail rail_electric ship" speed="13.89" length="10.49" shape="11.62,1434.96 8.73,1434.47 6.70,1433.20 5.51,1431.17 5.18,1428.37"/>
    </edge>
    <edge id=":node_00x14_4" function="internal">
        <lane id=":node_00x14_4_0" index="0" disallow="tram rail_urban rail rail_electric ship" speed="13.89" length="5.19" shape="8.48,1428.46 8.65,1429.82 9.25,1430.81 10.27,1431.42 11.73,1431.66"/>
    </edge>
    <edge id=":node_00x14_5" function="internal">
        <lane id=":node_00x14_5_0" index="0" disallow="tram rail_urban rail rail_electric ship" speed="13.89" length="9.60" shape="8.48,1428.46 8.52,1438.06"/>
    </edge>
    <edge id=":node_00x15_0" function="internal">
        <lane id=":node_00x15_0_0" index="0" disallow="tram rail_urban rail rail_electric ship" speed="13.89" length="5.09" shape="14.88,1530.69 13.47,1530.78 12.47,1531.30 11.86,1532.26 11.65,1533.66"/>
    </edge>
    <edge id=":node_00x15_1" function="internal">
        <lane id=":node_00x15_1_0" index="0" disallow="tram rail_urban rail rail_electric ship" speed="13.89" length="10.27" shape="14.88,1530.69 12.05,1530.10 9.99,1528.84 8.72,1526.91 8.22,1524.31"/>
    </edge>
    <edge id=":node_00x15_2" function="internal">
        <lane id=":node_00x15_2_0" index="0" disallow="tram rail_urban rail rail_electric ship" speed="13.89" length="5.38" shape="11.52,1524.19 11.79,1525.49 12.48,1526.46 13.60,1527.10 15.15,1527.40"/>
    </edge>
    <edge id=":node_00x15_3" function="internal">
        <lane id=":node_00x15_3_0" index="0" disallow="tram rail_urban rail rail_electric ship" speed="13.89" length="9.46" shape="11.52,1524.19 11.65,1533.66"/>
    </edge>
    <edge id=":node_00x15_4" function="internal">
        <lane id=":node_00x15_4_0" index="0" disallow="tram rail_urban rail rail_electric ship" speed="13.89" length="9.33" shape="8.35,1533.64 8.22,1524.31"/>
    </edge>
    <edge id=":node_00x15_5" function="internal">
        <lane id=":node_00x15_5_0" index="0" disallow="tram rail_urban rail rail_electric ship" speed="13.89" length="10.71" shape="8.35,1533.64 8.79,1530.71 10.07,1528.69 12.19,1527.59 15.15,1527.40"/>
    </edge>
    <edge id=":node_00x16_0" function="internal">
        <lane id=":node_00x16_0_0" index="0" disallow="tram rail_urban rail rail_electric ship" speed="13.89" length="5.30" shape="14.57,1644.34 13.06,1644.62 11.98,1645.26 11.33,1646.23 11.11,1647.56"/>
    </edge>
    <edge id=":node_00x16_1" function="internal">
        <lane id=":node_00x16_1_0" index="0" disallow="tram rail_urban rail rail_electric ship" speed="13.89" length="10.69" shape="14.57,1644.34 11.62,1644.11 9.52,1642.98 8.26,1640.95 7.85,1638.02"/>
    </edge>
    <edge id=":node_00x16_2" function="internal">
        <lane id=":node_00x16_2_0" index="0" disallow="tram rail_urban rail rail_electric ship" speed="13.89" length="5.09" shape="11.15,1638.04 11.35,1639.43 11.95,1640.40 12.95,1640.94 14.35,1641.04"/>
    </edge>
    <edge id=":node_00x16_3" function="internal">
        <lane id=":node_00x16_3_0" index="0" disallow="tram rail_urban rail rail_electric ship" speed="13.89" length="9.52" shape="11.15,1638.04 11.11,1647.56"/>
    </edge>
    <edge id=":node_00x16_4" function="internal">
        <lane id=":node_00x16_4_0" index="0" disallow="tram rail_urban rail rail_electric ship" speed="13.89" length="9.52" shape="7.81,1647.54 7.85,1638.02"/>
    </edge>
    <edge id=":node_00x16_5" function="internal">
        <lane id=":node_00x16_5_0" index="0" disallow="tram rail_urban rail rail_electric ship" speed="13.89" length="10.35" shape="7.81,1647.54 8.23,1644.86 9.46,1642.89 11.50,1641.61 14.35,1641.04"/>
    </edge>
    <edge id=":node_00x17_0" function="internal">
        <lane id=":node_00x17_0_0" index="0" disallow="tram rail_urban rail rail_electric ship" speed="13.89" length="5.21" shape="13.99,1736.62 12.52,1736.85 11.44,1737.44 10.77,1738.39 10.50,1739.70"/>
    </edge>
    <edge id=":node_00x17_1" function="internal">
        <lane id=":node_00x17_1_0" index="0" disallow="tram rail_urban rail rail_electric ship" speed="13.89" length="10.50" shape="13.99,1736.62 11.12,1736.30 9.07,1735.13 7.84,1733.11 7.45,1730.25"/>
    </edge>
    <edge id=":node_00x17_2" function="internal">
        <lane id=":node_00x17_2_0" index="0" disallow="tram rail_urban rail rail_electric ship" speed="13.89" length="5.04" shape="10.75,1730.26 10.94,1731.64 11.52,1732.61 12.51,1733.17 13.89,1733.32"/>
    </edge>
    <edge id=":node_00x17_3" function="internal">
        <lane id=":node_00x17_3_0" index="0" disallow="tram rail_urban rail rail_electric ship" speed="13.89" length="9.44" shape="10.75,1730.26 10.50,1739.70"/>
    </edge>
    <edge id=":node_00x17_4" function="internal">
        <lane id=":node_00x17_4_0" index="0" disallow="tram rail_urban rail rail_electric ship" speed="13.89" length="9.29" shape="7.20,1739.53 7.45,1730.25"/>
    </edge>
    <edge id=":node_00x17_5" function="internal">
        <lane id=":node_00x17_5_0" index="0" disallow="tram rail_urban rail rail_electric ship" speed="13.89" length="10.23" shape="7.20,1739.53 7.73,1736.89 9.02,1734.97 11.08,1733.79 13.89,1733.32"/>
    </edge>
    <edge id=":node_00x18_0" function="internal">
        <lane id=":node_00x18_0_0" index="0" disallow="tram rail_urban rail rail_electric ship" speed="13.89" length="9.93" shape="2.52,1841.61 2.58,1831.67"/>
    </edge>
    <edge id=":node_00x18_1" function="internal">
        <lane id=":node_00x18_1_0" index="0" disallow="tram rail_urban rail rail_electric ship" speed="13.89" length="10.55" shape="2.52,1841.61 2.82,1838.74 3.99,1836.68 6.02,1835.44 8.91,1835.01"/>
    </edge>
    <edge id=":node_00x18_2" function="internal">
        <lane id=":node_00x18_2_0" index="0" disallow="tram rail_urban rail rail_electric ship" speed="13.89" length="5.11" shape="8.93,1838.31 7.52,1838.51 6.53,1839.11 5.96,1840.10 5.82,1841.48"/>
    </edge>
    <edge id=":node_00x18_3" function="internal">
        <lane id=":node_00x18_3_0" index="0" disallow="tram rail_urban rail rail_electric ship" speed="13.89" length="10.61" shape="8.93,1838.31 6.02,1837.91 4.00,1836.67 2.85,1834.59 2.58,1831.67"/>
    </edge>
    <edge id=":node_00x18_4" function="internal">
        <lane id=":node_00x18_4_0" index="0" disallow="tram rail_urban rail rail_electric ship" speed="13.89" length="5.07" shape="5.87,1831.84 6.00,1833.23 6.55,1834.23 7.52,1834.82 8.91,1835.01"/>
    </edge>
    <edge id=":node_00x18_5" function="internal">
        <lane id=":node_00x18_5_0" index="0" disallow="tram rail_urban rail rail_electric ship" speed="13.89" length="9.64" shape="5.87,1831.84 5.82,1841.48"/>
    </edge>
    <edge id=":node_00x19_0" function="internal">
        <lane id=":node_00x19_0_0" index="0" disallow="tram rail_urban rail rail_electric ship" speed="13.89" length="5.72" shape="14.16,1959.31 12.48,1959.78 11.25,1960.51 10.49,1961.50 10.19,1962.76"/>
    </edge>
    <edge id=":node_00x19_1" function="internal">
        <lane id=":node_00x19_1_0" index="0" disallow="tram rail_urban rail rail_electric ship" speed="13.89" length="11.03" shape="14.16,1959.31 11.08,1959.40 8.84,1958.46 7.44,1956.47 6.89,1953.44"/>
    </edge>
    <edge id=":node_00x19_2" function="internal">
        <lane id=":node_00x19_2_0" index="0" disallow="tram rail_urban rail rail_electric ship" speed="13.89" length="5.17" shape="10.18,1953.31 10.45,1954.73 11.10,1955.66 12.15,1956.10 13.59,1956.06"/>
    </edge>
    <edge id=":node_00x19_3" function="internal">
        <lane id=":node_00x19_3_0" index="0" disallow="tram rail_urban rail rail_electric ship" speed="13.89" length="9.45" shape="10.18,1953.31 10.19,1962.76"/>
    </edge>
    <edge id=":node_00x19_4" function="internal">
        <lane id=":node_00x19_4_0" index="0" disallow="tram rail_urban rail rail_electric ship" speed="13.89" length="9.17" shape="6.90,1962.61 6.89,1953.44"/>
    </edge>
    <edge id=":node_00x19_5" function="internal">