<?xml version='1.0' encoding='UTF-8'?>
<nodes xmlns:xsi="http://www.w3.org/2001/XMLSchema-instance" version="0.27" xsi:noNamespaceSchemaLocation="http://sumo.dlr.de/xsd/edges_file.xsd"><node avg_slowdown_ratio="0.83777297816" id="node_08x14" type="right_before_left" weight_num="3.0" weight_sum="2.51331893448" x="800.00" y="1400.00" />
    <node avg_slowdown_ratio="0.807295416367" id="node_09x14" type="right_before_left" weight_num="3.0" weight_sum="2.4218862491" x="900.00" y="1400.00" />
    <node avg_slowdown_ratio="0.794576433883" id="node_05x10" type="right_before_left" weight_num="3.0" weight_sum="2.38372930165" x="500.00" y="1000.00" />
    <node avg_slowdown_ratio="0.784737221022" id="node_04x10" type="right_before_left" weight_num="4.0" weight_sum="3.13894888409" x="400.00" y="1000.00" />
    <node avg_slowdown_ratio="0.7813774898" id="node_08x13" type="right_before_left" weight_num="3.0" weight_sum="2.3441324694" x="800.00" y="1300.00" />
    <node avg_slowdown_ratio="0.767458603315" id="node_07x10" type="right_before_left" weight_num="4.0" weight_sum="3.06983441326" x="700.00" y="1000.00" />
    <node avg_slowdown_ratio="0.750899928008" id="node_03x10" type="right_before_left" weight_num="4.0" weight_sum="3.00359971203" x="300.00" y="1000.00" />
    <node avg_slowdown_ratio="0.73890088793" id="node_08x12" type="right_before_left" weight_num="3.0" weight_sum="2.21670266379" x="800.00" y="1200.00" />
    <node avg_slowdown_ratio="0.738420926327" id="node_06x09" type="right_before_left" weight_num="3.0" weight_sum="2.21526277898" x="600.00" y="900.00" />
    <node avg_slowdown_ratio="0.724022078233" id="node_08x15" type="right_before_left" weight_num="3.0" weight_sum="2.1720662347" x="800.00" y="1500.00" />
    <node avg_slowdown_ratio="0.70938324934" id="node_06x10" type="right_before_left" weight_num="3.0" weight_sum="2.12814974802" x="600.00" y="1000.00" />
    <node avg_slowdown_ratio="0.70464362851" id="node_07x11" type="right_before_left" weight_num="4.0" weight_sum="2.81857451404" x="700.00" y="1100.00" />
    <node avg_slowdown_ratio="0.703863690903" id="node_10x08" type="right_before_left" weight_num="3.0" weight_sum="2.11159107271" x="1000.00" y="800.00" />
    <node avg_slowdown_ratio="0.68898488121" id="node_10x07" type="right_before_left" weight_num="4.0" weight_sum="2.75593952484" x="1000.00" y="700.00" />
    <node avg_slowdown_ratio="0.682505399568" id="node_10x13" type="right_before_left" weight_num="4.0" weight_sum="2.73002159827" x="1000.00" y="1300.00" />
    <node avg_slowdown_ratio="0.67506599472" id="node_12x17" type="right_before_left" weight_num="3.0" weight_sum="2.02519798416" x="1200.00" y="1700.00" />
    <node avg_slowdown_ratio="0.67002639789" id="node_13x11" type="right_before_left" weight_num="3.0" weight_sum="2.01007919367" x="1300.00" y="1100.00" />
    <node avg_slowdown_ratio="0.660187185027" id="node_09x15" type="right_before_left" weight_num="3.0" weight_sum="1.98056155508" x="900.00" y="1500.00" />
    <node avg_slowdown_ratio="0.657307415407" id="node_15x17" type="right_before_left" weight_num="3.0" weight_sum="1.97192224622" x="1500.00" y="1700.00" />
    <node avg_slowdown_ratio="0.656767458602" id="node_01x10" type="right_before_left" weight_num="4.0" weight_sum="2.62706983441" x="100.00" y="1000.00" />
    <node avg_slowdown_ratio="0.64794816415" id="node_11x13" type="right_before_left" weight_num="3.0" weight_sum="1.94384449245" x="1100.00" y="1300.00" />
    <node avg_slowdown_ratio="0.629229661627" id="node_13x12" type="right_before_left" weight_num="3.0" weight_sum="1.88768898488" x="1300.00" y="1200.00" />
    <node avg_slowdown_ratio="0.61753059755" id="node_14x11" type="right_before_left" weight_num="4.0" weight_sum="2.4701223902" x="1400.00" y="1100.00" />
    <node avg_slowdown_ratio="0.615070794337" id="node_05x09" type="right_before_left" weight_num="3.0" weight_sum="1.84521238301" x="500.00" y="900.00" />
    <node avg_slowdown_ratio="0.61267098632" id="node_05x08" type="right_before_left" weight_num="4.0" weight_sum="2.45068394528" x="500.00" y="800.00" />
    <node avg_slowdown_ratio="0.6093112551" id="node_11x15" type="right_before_left" weight_num="3.0" weight_sum="1.8279337653" x="1100.00" y="1500.00" />
    <node avg_slowdown_ratio="0.608831293497" id="node_09x08" type="right_before_left" weight_num="3.0" weight_sum="1.82649388049" x="900.00" y="800.00" />
    <node avg_slowdown_ratio="0.607151427887" id="node_05x11" type="right_before_left" weight_num="3.0" weight_sum="1.82145428366" x="500.00" y="1100.00" />
    <node avg_slowdown_ratio="0.599712023037" id="node_13x17" type="right_before_left" weight_num="3.0" weight_sum="1.79913606911" x="1300.00" y="1700.00" />
    <node avg_slowdown_ratio="0.581893448525" id="node_10x05" type="right_before_left" weight_num="4.0" weight_sum="2.3275737941" x="1000.00" y="500.00" />
    <node avg_slowdown_ratio="0.57499400048" id="node_14x17" type="right_before_left" weight_num="3.0" weight_sum="1.72498200144" x="1400.00" y="1700.00" />
    <node avg_slowdown_ratio="0.572834173267" id="node_10x14" type="right_before_left" weight_num="3.0" weight_sum="1.7185025198" x="1000.00" y="1400.00" />
    <node avg_slowdown_ratio="0.569834413247" id="node_06x08" type="right_before_left" weight_num="4.0" weight_sum="2.27933765299" x="600.00" y="800.00" />
    <node avg_slowdown_ratio="0.566594672425" id="node_09x13" type="right_before_left" weight_num="2.0" weight_sum="1.13318934485" x="900.00" y="1300.00" />
    <node avg_slowdown_ratio="0.56539476842" id="node_07x12" type="right_before_left" weight_num="3.0" weight_sum="1.69618430526" x="700.00" y="1200.00" />
    <node avg_slowdown_ratio="0.56407487401" id="node_02x10" type="right_before_left" weight_num="2.0" weight_sum="1.12814974802" x="200.00" y="1000.00" />
    <node avg_slowdown_ratio="0.560475161985" id="node_12x12" type="right_before_left" weight_num="2.0" weight_sum="1.12095032397" x="1200.00" y="1200.00" />
    <node avg_slowdown_ratio="0.552195824335" id="node_06x06" type="right_before_left" weight_num="4.0" weight_sum="2.20878329734" x="600.00" y="600.00" />
    <node avg_slowdown_ratio="0.547396208303" id="node_08x10" type="right_before_left" weight_num="3.0" weight_sum="1.64218862491" x="800.00" y="1000.00" />
    <node avg_slowdown_ratio="0.545536357093" id="node_10x06" type="right_before_left" weight_num="4.0" weight_sum="2.18214542837" x="1000.00" y="600.00" />
    <node avg_slowdown_ratio="0.537077033835" id="node_12x15" type="right_before_left" weight_num="2.0" weight_sum="1.07415406767" x="1200.00" y="1500.00" />
    <node avg_slowdown_ratio="0.53419726422" id="node_15x16" type="right_before_left" weight_num="2.0" weight_sum="1.06839452844" x="1500.00" y="1600.00" />
    <node avg_slowdown_ratio="0.532277417807" id="node_15x15" type="right_before_left" weight_num="3.0" weight_sum="1.59683225342" x="1500.00" y="1500.00" />
    <node avg_slowdown_ratio="0.52663786897" id="node_10x15" type="right_before_left" weight_num="2.0" weight_sum="1.05327573794" x="1000.00" y="1500.00" />
    <node avg_slowdown_ratio="0.523878089753" id="node_12x18" type="right_before_left" weight_num="3.0" weight_sum="1.57163426926" x="1200.00" y="1800.00" />
    <node avg_slowdown_ratio="0.522318214545" id="node_12x16" type="right_before_left" weight_num="2.0" weight_sum="1.04463642909" x="1200.00" y="1600.00" />
    <node avg_slowdown_ratio="0.5156587473" id="node_16x17" type="right_before_left" weight_num="4.0" weight_sum="2.0626349892" x="1600.00" y="1700.00" />
    <node avg_slowdown_ratio="0.512119030477" id="node_06x11" type="right_before_left" weight_num="3.0" weight_sum="1.53635709143" x="600.00" y="1100.00" />
    <node avg_slowdown_ratio="0.499280057597" id="node_11x12" type="right_before_left" weight_num="4.0" weight_sum="1.99712023039" x="1100.00" y="1200.00" />
    <node avg_slowdown_ratio="0.485601151908" id="node_08x09" type="right_before_left" weight_num="2.0" weight_sum="0.971202303816" x="800.00" y="900.00" />
    <node avg_slowdown_ratio="0.459323254139" id="node_09x09" type="right_before_left" weight_num="2.0" weight_sum="0.918646508279" x="900.00" y="900.00" />
    <node avg_slowdown_ratio="0.45464362851" id="node_06x07" type="right_before_left" weight_num="4.0" weight_sum="1.81857451404" x="600.00" y="700.00" />
    <node avg_slowdown_ratio="0.44660427166" id="node_04x08" type="right_before_left" weight_num="3.0" weight_sum="1.33981281498" x="400.00" y="800.00" />
    <node avg_slowdown_ratio="0.406767458603" id="node_14x10" type="right_before_left" weight_num="3.0" weight_sum="1.22030237581" x="1400.00" y="1000.00" />
    <node avg_slowdown_ratio="0.39212862971" id="node_07x04" type="right_before_left" weight_num="3.0" weight_sum="1.17638588913" x="700.00" y="400.00" />
    <node avg_slowdown_ratio="0.385529157668" id="node_12x05" type="right_before_left" weight_num="4.0" weight_sum="1.54211663067" x="1200.00" y="500.00" />
    <node avg_slowdown_ratio="0.36087113031" id="node_11x05" type="right_before_left" weight_num="4.0" weight_sum="1.44348452124" x="1100.00" y="500.00" />
    <node avg_slowdown_ratio="0.349352051835" id="node_14x09" type="right_before_left" weight_num="4.0" weight_sum="1.39740820734" x="1400.00" y="900.00" />
    <node avg_slowdown_ratio="0.347972162227" id="node_15x11" type="right_before_left" weight_num="3.0" weight_sum="1.04391648668" x="1500.00" y="1100.00" />
    <node avg_slowdown_ratio="0.338012958965" id="node_15x05" type="right_before_left" weight_num="4.0" weight_sum="1.35205183586" x="1500.00" y="500.00" />
    <node avg_slowdown_ratio="0.335013198943" id="node_06x05" type="right_before_left" weight_num="3.0" weight_sum="1.00503959683" x="600.00" y="500.00" />
    <node avg_slowdown_ratio="0.333693304535" id="node_14x14" type="right_before_left" weight_num="4.0" weight_sum="1.33477321814" x="1400.00" y="1400.00" />
    <node avg_slowdown_ratio="0.333573314133" id="node_15x14" type="right_before_left" weight_num="3.0" weight_sum="1.0007199424" x="1500.00" y="1400.00" />
    <node avg_slowdown_ratio="0.331893448525" id="node_07x03" type="right_before_left" weight_num="4.0" weight_sum="1.3275737941" x="700.00" y="300.00" />
    <node avg_slowdown_ratio="0.324454043677" id="node_07x05" type="right_before_left" weight_num="3.0" weight_sum="0.97336213103" x="700.00" y="500.00" />
    <node avg_slowdown_ratio="0.319894408447" id="node_17x20" type="right_before_left" weight_num="3.0" weight_sum="0.959683225342" x="1700.00" y="2000.00" />
    <node avg_slowdown_ratio="0.316594672428" id="node_15x06" type="right_before_left" weight_num="4.0" weight_sum="1.26637868971" x="1500.00" y="600.00" />
    <node avg_slowdown_ratio="0.316534677226" id="node_19x01" type="right_before_left" weight_num="3.0" weight_sum="0.949604031678" x="1900.00" y="100.00" />
    <node avg_slowdown_ratio="0.316054715623" id="node_04x11" type="right_before_left" weight_num="3.0" weight_sum="0.948164146869" x="400.00" y="1100.00" />
    <node avg_slowdown_ratio="0.313894888409" id="node_06x04" type="right_before_left" weight_num="3.0" weight_sum="0.941684665227" x="600.00" y="400.00" />
    <node avg_slowdown_ratio="0.3124550036" id="node_13x08" type="right_before_left" weight_num="3.0" weight_sum="0.9373650108" x="1300.00" y="800.00" />
    <node avg_slowdown_ratio="0.312095032398" id="node_04x19" type="right_before_left" weight_num="4.0" weight_sum="1.24838012959" x="400.00" y="1900.00" />
    <node avg_slowdown_ratio="0.306695464363" id="node_11x02" type="right_before_left" weight_num="3.0" weight_sum="0.920086393089" x="1100.00" y="200.00" />
    <node avg_slowdown_ratio="0.306335493161" id="node_00x00" type="right_before_left" weight_num="2.0" weight_sum="0.612670986321" x="0.00" y="0.00" />
    <node avg_slowdown_ratio="0.302615790737" id="node_20x10" type="right_before_left" weight_num="3.0" weight_sum="0.90784737221" x="2000.00" y="1000.00" />
    <node avg_slowdown_ratio="0.299256059515" id="node_15x03" type="right_before_left" weight_num="3.0" weight_sum="0.897768178545" x="1500.00" y="300.00" />
    <node avg_slowdown_ratio="0.297696184305" id="node_09x01" type="right_before_left" weight_num="4.0" weight_sum="1.19078473722" x="900.00" y="100.00" />
    <node avg_slowdown_ratio="0.297576193904" id="node_00x03" type="right_before_left" weight_num="3.0" weight_sum="0.892728581713" x="0.00" y="300.00" />
    <node avg_slowdown_ratio="0.296376289897" id="node_09x04" type="right_before_left" weight_num="3.0" weight_sum="0.88912886969" x="900.00" y="400.00" />
    <node avg_slowdown_ratio="0.295176385889" id="node_09x02" type="right_before_left" weight_num="3.0" weight_sum="0.885529157667" x="900.00" y="200.00" />
    <node avg_slowdown_ratio="0.295176385889" id="node_18x17" type="right_before_left" weight_num="3.0" weight_sum="0.885529157667" x="1800.00" y="1700.00" />
    <node avg_slowdown_ratio="0.294696424286" id="node_05x14" type="right_before_left" weight_num="3.0" weight_sum="0.884089272858" x="500.00" y="1400.00" />
    <node avg_slowdown_ratio="0.294696424286" id="node_18x16" type="right_before_left" weight_num="3.0" weight_sum="0.884089272857" x="1800.00" y="1600.00" />
    <node avg_slowdown_ratio="0.294216462683" id="node_09x06" type="right_before_left" weight_num="3.0" weight_sum="0.882649388049" x="900.00" y="600.00" />
    <node avg_slowdown_ratio="0.292836573075" id="node_05x17" type="right_before_left" weight_num="4.0" weight_sum="1.1713462923" x="500.00" y="1700.00" />
    <node avg_slowdown_ratio="0.292776577874" id="node_05x19" type="right_before_left" weight_num="3.0" weight_sum="0.878329733622" x="500.00" y="1900.00" />
    <node avg_slowdown_ratio="0.292056635469" id="node_17x04" type="right_before_left" weight_num="3.0" weight_sum="0.876169906408" x="1700.00" y="400.00" />
    <node avg_slowdown_ratio="0.290136789057" id="node_02x12" type="right_before_left" weight_num="3.0" weight_sum="0.870410367171" x="200.00" y="1200.00" />
    <node avg_slowdown_ratio="0.28923686105" id="node_03x14" type="right_before_left" weight_num="4.0" weight_sum="1.1569474442" x="300.00" y="1400.00" />
    <node avg_slowdown_ratio="0.289176865851" id="node_09x10" type="right_before_left" weight_num="3.0" weight_sum="0.867530597552" x="900.00" y="1000.00" />
    <node avg_slowdown_ratio="0.287736981042" id="node_12x13" type="right_before_left" weight_num="3.0" weight_sum="0.863210943125" x="1200.00" y="1300.00" />
    <node avg_slowdown_ratio="0.286777057835" id="node_05x15" type="right_before_left" weight_num="3.0" weight_sum="0.860331173505" x="500.00" y="1500.00" />
    <node avg_slowdown_ratio="0.286537077032" id="node_10x04" type="right_before_left" weight_num="4.0" weight_sum="1.14614830813" x="1000.00" y="400.00" />
    <node avg_slowdown_ratio="0.285817134629" id="node_04x12" type="right_before_left" weight_num="2.0" weight_sum="0.571634269259" x="400.00" y="1200.00" />
    <node avg_slowdown_ratio="0.285637149027" id="node_18x15" type="right_before_left" weight_num="4.0" weight_sum="1.14254859611" x="1800.00" y="1500.00" />
    <node avg_slowdown_ratio="0.285577153828" id="node_13x18" type="right_before_left" weight_num="3.0" weight_sum="0.856731461483" x="1300.00" y="1800.00" />
    <node avg_slowdown_ratio="0.285097192224" id="node_00x09" type="right_before_left" weight_num="2.0" weight_sum="0.570194384449" x="0.00" y="900.00" />
    <node avg_slowdown_ratio="0.283657307415" id="node_02x09" type="right_before_left" weight_num="2.0" weight_sum="0.567314614831" x="200.00" y="900.00" />
    <node avg_slowdown_ratio="0.283297336213" id="node_00x18" type="right_before_left" weight_num="2.0" weight_sum="0.566594672426" x="0.00" y="1800.00" />
    <node avg_slowdown_ratio="0.282937365011" id="node_00x07" type="right_before_left" weight_num="3.0" weight_sum="0.848812095033" x="0.00" y="700.00" />
    <node avg_slowdown_ratio="0.282397408207" id="node_05x18" type="right_before_left" weight_num="4.0" weight_sum="1.12958963283" x="500.00" y="1800.00" />
    <node avg_slowdown_ratio="0.281017518599" id="node_15x08" type="right_before_left" weight_num="3.0" weight_sum="0.843052555796" x="1500.00" y="800.00" />
    <node avg_slowdown_ratio="0.280777537797" id="node_05x01" type="right_before_left" weight_num="2.0" weight_sum="0.561555075594" x="500.00" y="100.00" />
    <node avg_slowdown_ratio="0.27969762419" id="node_02x08" type="right_before_left" weight_num="4.0" weight_sum="1.11879049676" x="200.00" y="800.00" />
    <node avg_slowdown_ratio="0.27813774898" id="node_06x17" type="right_before_left" weight_num="3.0" weight_sum="0.83441324694" x="600.00" y="1700.00" />
    <node avg_slowdown_ratio="0.277897768179" id="node_02x17" type="right_before_left" weight_num="2.0" weight_sum="0.555795536358" x="200.00" y="1700.00" />
    <node avg_slowdown_ratio="0.276937844973" id="node_11x19" type="right_before_left" weight_num="3.0" weight_sum="0.830813534918" x="1100.00" y="1900.00" />
    <node avg_slowdown_ratio="0.275977921766" id="node_18x07" type="right_before_left" weight_num="3.0" weight_sum="0.827933765299" x="1800.00" y="700.00" />
    <node avg_slowdown_ratio="0.274058075354" id="node_07x17" type="right_before_left" weight_num="3.0" weight_sum="0.822174226062" x="700.00" y="1700.00" />
    <node avg_slowdown_ratio="0.272498200144" id="node_12x06" type="right_before_left" weight_num="2.0" weight_sum="0.544996400288" x="1200.00" y="600.00" />
    <node avg_slowdown_ratio="0.272378209743" id="node_06x13" type="right_before_left" weight_num="3.0" weight_sum="0.81713462923" x="600.00" y="1300.00" />
    <node avg_slowdown_ratio="0.27189824814" id="node_05x12" type="right_before_left" weight_num="3.0" weight_sum="0.81569474442" x="500.00" y="1200.00" />
    <node avg_slowdown_ratio="0.271658267339" id="node_11x09" type="right_before_left" weight_num="3.0" weight_sum="0.814974802016" x="1100.00" y="900.00" />
    <node avg_slowdown_ratio="0.271418286537" id="node_00x11" type="right_before_left" weight_num="3.0" weight_sum="0.814254859611" x="0.00" y="1100.00" />
    <node avg_slowdown_ratio="0.271418286537" id="node_08x18" type="right_before_left" weight_num="2.0" weight_sum="0.542836573075" x="800.00" y="1800.00" />
    <node avg_slowdown_ratio="0.270698344133" id="node_00x17" type="right_before_left" weight_num="3.0" weight_sum="0.812095032398" x="0.00" y="1700.00" />
    <node avg_slowdown_ratio="0.270698344132" id="node_05x16" type="right_before_left" weight_num="3.0" weight_sum="0.812095032397" x="500.00" y="1600.00" />
    <node avg_slowdown_ratio="0.270458363331" id="node_11x08" type="right_before_left" weight_num="3.0" weight_sum="0.811375089993" x="1100.00" y="800.00" />
    <node avg_slowdown_ratio="0.269498440125" id="node_11x18" type="right_before_left" weight_num="3.0" weight_sum="0.808495320374" x="1100.00" y="1800.00" />
    <node avg_slowdown_ratio="0.269018478522" id="node_14x05" type="right_before_left" weight_num="3.0" weight_sum="0.807055435565" x="1400.00" y="500.00" />
    <node avg_slowdown_ratio="0.26871850252" id="node_14x06" type="right_before_left" weight_num="4.0" weight_sum="1.07487401008" x="1400.00" y="600.00" />
    <node avg_slowdown_ratio="0.268538516919" id="node_19x15" type="right_before_left" weight_num="3.0" weight_sum="0.805615550756" x="1900.00" y="1500.00" />
    <node avg_slowdown_ratio="0.268178545717" id="node_14x08" type="right_before_left" weight_num="4.0" weight_sum="1.07271418287" x="1400.00" y="800.00" />
    <node avg_slowdown_ratio="0.268178545717" id="node_15x12" type="right_before_left" weight_num="2.0" weight_sum="0.536357091433" x="1500.00" y="1200.00" />
    <node avg_slowdown_ratio="0.267338612911" id="node_07x20" type="right_before_left" weight_num="3.0" weight_sum="0.802015838732" x="700.00" y="2000.00" />
    <node avg_slowdown_ratio="0.266018718502" id="node_04x18" type="right_before_left" weight_num="2.0" weight_sum="0.532037437005" x="400.00" y="1800.00" />
    <node avg_slowdown_ratio="0.265898728102" id="node_17x05" type="right_before_left" weight_num="3.0" weight_sum="0.797696184305" x="1700.00" y="500.00" />
    <node avg_slowdown_ratio="0.2656587473" id="node_06x15" type="right_before_left" weight_num="2.0" weight_sum="0.531317494601" x="600.00" y="1500.00" />
    <node avg_slowdown_ratio="0.2656587473" id="node_07x00" type="right_before_left" weight_num="2.0" weight_sum="0.531317494601" x="700.00" y="0.00" />
    <node avg_slowdown_ratio="0.264938804895" id="node_02x16" type="right_before_left" weight_num="2.0" weight_sum="0.529877609791" x="200.00" y="1600.00" />
    <node avg_slowdown_ratio="0.264758819295" id="node_19x06" type="right_before_left" weight_num="4.0" weight_sum="1.05903527718" x="1900.00" y="600.00" />
    <node avg_slowdown_ratio="0.264578833693" id="node_01x19" type="right_before_left" weight_num="2.0" weight_sum="0.529157667387" x="100.00" y="1900.00" />
    <node avg_slowdown_ratio="0.264218862491" id="node_01x00" type="right_before_left" weight_num="3.0" weight_sum="0.792656587473" x="100.00" y="0.00" />
    <node avg_slowdown_ratio="0.264218862491" id="node_07x06" type="right_before_left" weight_num="3.0" weight_sum="0.792656587473" x="700.00" y="600.00" />
    <node avg_slowdown_ratio="0.263978881689" id="node_11x07" type="right_before_left" weight_num="3.0" weight_sum="0.791936645068" x="1100.00" y="700.00" />
    <node avg_slowdown_ratio="0.263858891288" id="node_07x08" type="right_before_left" weight_num="2.0" weight_sum="0.527717782577" x="700.00" y="800.00" />
    <node avg_slowdown_ratio="0.263858891288" id="node_07x19" type="right_before_left" weight_num="2.0" weight_sum="0.527717782577" x="700.00" y="1900.00" />
    <node avg_slowdown_ratio="0.263858891288" id="node_12x14" type="right_before_left" weight_num="2.0" weight_sum="0.527717782577" x="1200.00" y="1400.00" />
    <node avg_slowdown_ratio="0.263738900888" id="node_01x16" type="right_before_left" weight_num="3.0" weight_sum="0.791216702664" x="100.00" y="1600.00" />
    <node avg_slowdown_ratio="0.263138948884" id="node_05x07" type="right_before_left" weight_num="2.0" weight_sum="0.526277897768" x="500.00" y="700.00" />
    <node avg_slowdown_ratio="0.263138948884" id="node_16x09" type="right_before_left" weight_num="2.0" weight_sum="0.526277897768" x="1600.00" y="900.00" />
    <node avg_slowdown_ratio="0.262778977682" id="node_00x10" type="right_before_left" weight_num="3.0" weight_sum="0.788336933045" x="0.00" y="1000.00" />
    <node avg_slowdown_ratio="0.262778977681" id="node_04x09" type="right_before_left" weight_num="2.0" weight_sum="0.525557955363" x="400.00" y="900.00" />
    <node avg_slowdown_ratio="0.26241900648" id="node_04x20" type="right_before_left" weight_num="2.0" weight_sum="0.524838012959" x="400.00" y="2000.00" />
    <node avg_slowdown_ratio="0.262059035278" id="node_02x14" type="right_before_left" weight_num="2.0" weight_sum="0.524118070555" x="200.00" y="1400.00" />
    <node avg_slowdown_ratio="0.262059035277" id="node_18x03" type="right_before_left" weight_num="2.0" weight_sum="0.524118070554" x="1800.00" y="300.00" />
    <node avg_slowdown_ratio="0.261819054476" id="node_03x08" type="right_before_left" weight_num="3.0" weight_sum="0.785457163427" x="300.00" y="800.00" />
    <node avg_slowdown_ratio="0.261819054475" id="node_04x05" type="right_before_left" weight_num="3.0" weight_sum="0.785457163426" x="400.00" y="500.00" />
    <node avg_slowdown_ratio="0.261339092872" id="node_02x19" type="right_before_left" weight_num="3.0" weight_sum="0.784017278617" x="200.00" y="1900.00" />
    <node avg_slowdown_ratio="0.260979121671" id="node_19x14" type="right_before_left" weight_num="2.0" weight_sum="0.521958243341" x="1900.00" y="1400.00" />
    <node avg_slowdown_ratio="0.260859131269" id="node_16x05" type="right_before_left" weight_num="3.0" weight_sum="0.782577393808" x="1600.00" y="500.00" />
    <node avg_slowdown_ratio="0.260619150468" id="node_07x07" type="right_before_left" weight_num="2.0" weight_sum="0.521238300936" x="700.00" y="700.00" />
    <node avg_slowdown_ratio="0.260619150468" id="node_09x18" type="right_before_left" weight_num="3.0" weight_sum="0.781857451404" x="900.00" y="1800.00" />
    <node avg_slowdown_ratio="0.260139188865" id="node_16x13" type="right_before_left" weight_num="3.0" weight_sum="0.780417566595" x="1600.00" y="1300.00" />
    <node avg_slowdown_ratio="0.259899208063" id="node_00x16" type="right_before_left" weight_num="3.0" weight_sum="0.77969762419" x="0.00" y="1600.00" />
    <node avg_slowdown_ratio="0.259899208063" id="node_17x10" type="right_before_left" weight_num="3.0" weight_sum="0.77969762419" x="1700.00" y="1000.00" />
    <node avg_slowdown_ratio="0.259899208062" id="node_14x18" type="right_before_left" weight_num="4.0" weight_sum="1.03959683225" x="1400.00" y="1800.00" />
    <node avg_slowdown_ratio="0.259539236861" id="node_03x18" type="right_before_left" weight_num="2.0" weight_sum="0.519078473722" x="300.00" y="1800.00" />
    <node avg_slowdown_ratio="0.259179265659" id="node_00x19" type="right_before_left" weight_num="2.0" weight_sum="0.518358531318" x="0.00" y="1900.00" />
    <node avg_slowdown_ratio="0.259179265659" id="node_03x09" type="right_before_left" weight_num="3.0" weight_sum="0.777537796976" x="300.00" y="900.00" />
    <node avg_slowdown_ratio="0.258939284857" id="node_13x09" type="right_before_left" weight_num="3.0" weight_sum="0.776817854572" x="1300.00" y="900.00" />
    <node avg_slowdown_ratio="0.258459323255" id="node_18x06" type="right_before_left" weight_num="4.0" weight_sum="1.03383729302" x="1800.00" y="600.00" />
    <node avg_slowdown_ratio="0.258099352052" id="node_00x01" type="right_before_left" weight_num="2.0" weight_sum="0.516198704104" x="0.00" y="100.00" />
    <node avg_slowdown_ratio="0.258099352051" id="node_00x05" type="right_before_left" weight_num="2.0" weight_sum="0.516198704103" x="0.00" y="500.00" />
    <node avg_slowdown_ratio="0.25773938085" id="node_20x08" type="right_before_left" weight_num="3.0" weight_sum="0.773218142549" x="2000.00" y="800.00" />
    <node avg_slowdown_ratio="0.257499400048" id="node_02x06" type="right_before_left" weight_num="3.0" weight_sum="0.772498200144" x="200.00" y="600.00" />
    <node avg_slowdown_ratio="0.257019438445" id="node_03x03" type="right_before_left" weight_num="3.0" weight_sum="0.771058315335" x="300.00" y="300.00" />
    <node avg_slowdown_ratio="0.257019438445" id="node_06x03" type="right_before_left" weight_num="3.0" weight_sum="0.771058315335" x="600.00" y="300.00" />
    <node avg_slowdown_ratio="0.256779457643" id="node_08x17" type="right_before_left" weight_num="3.0" weight_sum="0.77033837293" x="800.00" y="1700.00" />
    <node avg_slowdown_ratio="0.256299496041" id="node_00x06" type="right_before_left" weight_num="3.0" weight_sum="0.768898488122" x="0.00" y="600.00" />
    <node avg_slowdown_ratio="0.25629949604" id="node_05x05" type="right_before_left" weight_num="3.0" weight_sum="0.768898488121" x="500.00" y="500.00" />
    <node avg_slowdown_ratio="0.255819534437" id="node_12x03" type="right_before_left" weight_num="3.0" weight_sum="0.767458603312" x="1200.00" y="300.00" />
    <node avg_slowdown_ratio="0.255819534437" id="node_15x07" type="right_before_left" weight_num="3.0" weight_sum="0.767458603312" x="1500.00" y="700.00" />
    <node avg_slowdown_ratio="0.255579553635" id="node_16x04" type="right_before_left" weight_num="4.0" weight_sum="1.02231821454" x="1600.00" y="400.00" />
    <node avg_slowdown_ratio="0.255039596832" id="node_11x06" type="right_before_left" weight_num="4.0" weight_sum="1.02015838733" x="1100.00" y="600.00" />
    <node avg_slowdown_ratio="0.254499640029" id="node_13x19" type="right_before_left" weight_num="2.0" weight_sum="0.508999280057" x="1300.00" y="1900.00" />
    <node avg_slowdown_ratio="0.254379649628" id="node_07x15" type="right_before_left" weight_num="3.0" weight_sum="0.763138948884" x="700.00" y="1500.00" />
    <node avg_slowdown_ratio="0.254139668827" id="node_11x20" type="right_before_left" weight_num="2.0" weight_sum="0.508279337653" x="1100.00" y="2000.00" />
    <node avg_slowdown_ratio="0.253179745621" id="node_03x19" type="right_before_left" weight_num="3.0" weight_sum="0.759539236862" x="300.00" y="1900.00" />
    <node avg_slowdown_ratio="0.25317974562" id="node_02x18" type="right_before_left" weight_num="3.0" weight_sum="0.759539236861" x="200.00" y="1800.00" />
    <node avg_slowdown_ratio="0.252339812815" id="node_17x15" type="right_before_left" weight_num="4.0" weight_sum="1.00935925126" x="1700.00" y="1500.00" />
    <node avg_slowdown_ratio="0.252219822414" id="node_10x19" type="right_before_left" weight_num="3.0" weight_sum="0.756659467243" x="1000.00" y="1900.00" />
    <node avg_slowdown_ratio="0.251979841612" id="node_19x07" type="right_before_left" weight_num="2.0" weight_sum="0.503959683225" x="1900.00" y="700.00" />
    <node avg_slowdown_ratio="0.251739860811" id="node_10x18" type="right_before_left" weight_num="3.0" weight_sum="0.755219582433" x="1000.00" y="1800.00" />
    <node avg_slowdown_ratio="0.25161987041" id="node_15x20" type="right_before_left" weight_num="2.0" weight_sum="0.50323974082" x="1500.00" y="2000.00" />
    <node avg_slowdown_ratio="0.251259899208" id="node_01x20" type="right_before_left" weight_num="3.0" weight_sum="0.753779697624" x="100.00" y="2000.00" />
    <node avg_slowdown_ratio="0.251259899208" id="node_04x14" type="right_before_left" weight_num="2.0" weight_sum="0.502519798416" x="400.00" y="1400.00" />
    <node avg_slowdown_ratio="0.251259899208" id="node_12x11" type="right_before_left" weight_num="2.0" weight_sum="0.502519798416" x="1200.00" y="1100.00" />
    <node avg_slowdown_ratio="0.251259899208" id="node_16x03" type="right_before_left" weight_num="2.0" weight_sum="0.502519798416" x="1600.00" y="300.00" />