<?xml version='1.0' encoding='UTF-8'?>
<nodes xmlns:xsi="http://www.w3.org/2001/XMLSchema-instance" version="0.27" xsi:noNamespaceSchemaLocation="http://sumo.dlr.de/xsd/edges_file.xsd"><node avg_slowdown_ratio="0.999280057598" id="node_07x13" junction="True" old_x="700.0" old_y="1300.0" type="priority" weight_num="4.0" weight_sum="3.99712023039" x="699.990186143" x_displacement_sum="-0.00981385701433" y="1300.00981386" y_displacement_sum="0.00981385701433" />
    <node avg_slowdown_ratio="0.999280057598" id="node_13x07" junction="True" old_x="1300.0" old_y="700.0" type="priority" weight_num="4.0" weight_sum="3.99712023039" x="1300.00981386" x_displacement_sum="0.00981385701433" y="699.990186143" y_displacement_sum="-0.00981385701433" />
    <node avg_slowdown_ratio="0.0" id="node_00x00" junction="True" old_x="0.0" old_y="0.0" type="priority" weight_num="2.0" weight_sum="0.0" x="-0.00620915463263" x_displacement_sum="-0.00620915463263" y="-0.00620915463263" y_displacement_sum="-0.00620915463263" />
    <node avg_slowdown_ratio="0.0" id="node_00x01" junction="True" old_x="0.0" old_y="100.0" type="priority" weight_num="3.0" weight_sum="0.0" x="-0.00703473261934" x_displacement_sum="-0.00703473261934" y="99.9934849692" y_displacement_sum="-0.00651503075198" />
    <node avg_slowdown_ratio="0.0" id="node_00x02" junction="True" old_x="0.0" old_y="200.0" type="priority" weight_num="3.0" weight_sum="0.0" x="-0.00796341362665" x_displacement_sum="-0.00796341362665" y="199.993191783" y_displacement_sum="-0.00680821720341" />
    <node avg_slowdown_ratio="0.0" id="node_00x03" junction="True" old_x="0.0" old_y="300.0" type="priority" weight_num="3.0" weight_sum="0.0" x="-0.00900862322379" x_displacement_sum="-0.00900862322379" y="299.992917249" y_displacement_sum="-0.00708275119915" />
    <node avg_slowdown_ratio="0.0" id="node_00x04" junction="True" old_x="0.0" old_y="400.0" type="priority" weight_num="3.0" weight_sum="0.0" x="-0.0101893868881" x_displacement_sum="-0.0101893868881" y="399.992670085" y_displacement_sum="-0.0073299148708" />
    <node avg_slowdown_ratio="0.0" id="node_00x05" junction="True" old_x="0.0" old_y="500.0" type="priority" weight_num="3.0" weight_sum="0.0" x="-0.0115322970349" x_displacement_sum="-0.0115322970349" y="499.992466514" y_displacement_sum="-0.00753348642734" />
    <node avg_slowdown_ratio="0.0" id="node_00x06" junction="True" old_x="0.0" old_y="600.0" type="priority" weight_num="3.0" weight_sum="0.0" x="-0.0130709845677" x_displacement_sum="-0.0130709845677" y="599.992338988" y_displacement_sum="-0.00766101173314" />
    <node avg_slowdown_ratio="0.0" id="node_00x07" junction="True" old_x="0.0" old_y="700.0" type="priority" weight_num="3.0" weight_sum="0.0" x="-0.0148388995296" x_displacement_sum="-0.0148388995296" y="699.992349143" y_displacement_sum="-0.00765085695472" />
    <node avg_slowdown_ratio="0.0" id="node_00x08" junction="True" old_x="0.0" old_y="800.0" type="priority" weight_num="3.0" weight_sum="0.0" x="-0.0168492853903" x_displacement_sum="-0.0168492853903" y="799.992601916" y_displacement_sum="-0.00739808427772" />
    <node avg_slowdown_ratio="0.0" id="node_00x09" junction="True" old_x="0.0" old_y="900.0" type="priority" weight_num="3.0" weight_sum="0.0" x="-0.0190569881837" x_displacement_sum="-0.0190569881837" y="899.993250899" y_displacement_sum="-0.00674910101768" />
    <node avg_slowdown_ratio="0.0" id="node_00x10" junction="True" old_x="0.0" old_y="1000.0" type="priority" weight_num="3.0" weight_sum="0.0" x="-0.0213060857389" x_displacement_sum="-0.0213060857389" y="999.994475524" y_displacement_sum="-0.00552447621869" />
    <node avg_slowdown_ratio="0.0" id="node_00x11" junction="True" old_x="0.0" old_y="1100.0" type="priority" weight_num="3.0" weight_sum="0.0" x="-0.0232915536382" x_displacement_sum="-0.0232915536382" y="1099.99640882" y_displacement_sum="-0.00359117696726" />
    <node avg_slowdown_ratio="0.0" id="node_00x12" junction="True" old_x="0.0" old_y="1200.0" type="priority" weight_num="3.0" weight_sum="0.0" x="-0.0245923318807" x_displacement_sum="-0.0245923318807" y="1199.99902268" y_displacement_sum="-0.000977315381737" />
    <node avg_slowdown_ratio="0.0" id="node_00x13" junction="True" old_x="0.0" old_y="1300.0" type="priority" weight_num="3.0" weight_sum="0.0" x="-0.0248193520561" x_displacement_sum="-0.0248193520561" y="1300.00204271" y_displacement_sum="0.00204271453518" />
    <node avg_slowdown_ratio="0.0" id="node_00x14" junction="True" old_x="0.0" old_y="1400.0" type="priority" weight_num="3.0" weight_sum="0.0" x="-0.0238206862521" x_displacement_sum="-0.0238206862521" y="1400.00499959" y_displacement_sum="0.00499959494155" />
    <node avg_slowdown_ratio="0.0" id="node_00x15" junction="True" old_x="0.0" old_y="1500.0" type="priority" weight_num="3.0" weight_sum="0.0" x="-0.0217814544944" x_displacement_sum="-0.0217814544944" y="1500.00742741" y_displacement_sum="0.00742741152101" />
    <node avg_slowdown_ratio="0.0" id="node_00x16" junction="True" old_x="0.0" old_y="1600.0" type="priority" weight_num="3.0" weight_sum="0.0" x="-0.0191223199828" x_displacement_sum="-0.0191223199828" y="1600.00906202" y_displacement_sum="0.00906202312471" />
    <node avg_slowdown_ratio="0.0" id="node_00x17" junction="True" old_x="0.0" old_y="1700.0" type="priority" weight_num="3.0" weight_sum="0.0" x="-0.0162924063374" x_displacement_sum="-0.0162924063374" y="1700.00989236" y_displacement_sum="0.0098923624358" />
    <node avg_slowdown_ratio="0.0" id="node_00x18" junction="True" old_x="0.0" old_y="1800.0" type="priority" weight_num="3.0" weight_sum="0.0" x="-0.0136189528352" x_displacement_sum="-0.0136189528352" y="1800.0100747" y_displacement_sum="0.0100746987964" />
    <node avg_slowdown_ratio="0.0" id="node_00x19" junction="True" old_x="0.0" old_y="1900.0" type="priority" weight_num="3.0" weight_sum="0.0" x="-0.0112719244721" x_displacement_sum="-0.0112719244721" y="1900.00981633" y_displacement_sum="0.00981632590081" />
    <node avg_slowdown_ratio="0.0" id="node_00x20" junction="True" old_x="0.0" old_y="2000.0" type="priority" weight_num="2.0" weight_sum="0.0" x="-0.00930070641812" x_displacement_sum="-0.00930070641812" y="2000.00930071" y_displacement_sum="0.00930070641812" />
    <node avg_slowdown_ratio="0.0" id="node_01x00" junction="True" old_x="100.0" old_y="0.0" type="priority" weight_num="3.0" weight_sum="0.0" x="99.9934849692" x_displacement_sum="-0.00651503075198" y="-0.00703473261934" y_displacement_sum="-0.00703473261934" />
    <node avg_slowdown_ratio="0.0" id="node_01x01" junction="True" old_x="100.0" old_y="100.0" type="priority" weight_num="4.0" weight_sum="0.0" x="99.9925518062" x_displacement_sum="-0.00744819379116" y="99.9925518062" y_displacement_sum="-0.00744819379116" />
    <node avg_slowdown_ratio="0.0" id="node_01x02" junction="True" old_x="100.0" old_y="200.0" type="priority" weight_num="4.0" weight_sum="0.0" x="99.991494121" x_displacement_sum="-0.00850587904398" y="199.992138142" y_displacement_sum="-0.00786185806257" />
    <node avg_slowdown_ratio="0.0" id="node_01x03" junction="True" old_x="100.0" old_y="300.0" type="priority" weight_num="4.0" weight_sum="0.0" x="99.9902946647" x_displacement_sum="-0.00970533532153" y="299.991724444" y_displacement_sum="-0.00827555636323" />
    <node avg_slowdown_ratio="0.0" id="node_01x04" junction="True" old_x="100.0" old_y="400.0" type="priority" weight_num="4.0" weight_sum="0.0" x="99.9889261503" x_displacement_sum="-0.0110738496949" y="399.99130952" y_displacement_sum="-0.00869047998817" />
    <node avg_slowdown_ratio="0.0" id="node_01x05" junction="True" old_x="100.0" old_y="500.0" type="priority" weight_num="4.0" weight_sum="0.0" x="99.9873442941" x_displacement_sum="-0.012655705866" y="499.990895755" y_displacement_sum="-0.00910424471418" />
    <node avg_slowdown_ratio="0.0" id="node_01x06" junction="True" old_x="100.0" old_y="600.0" type="priority" weight_num="4.0" weight_sum="0.0" x="99.9854813616" x_displacement_sum="-0.0145186383526" y="599.990501685" y_displacement_sum="-0.009498314897" />
    <node avg_slowdown_ratio="0.0" id="node_01x07" junction="True" old_x="100.0" old_y="700.0" type="priority" weight_num="4.0" weight_sum="0.0" x="99.9832466981" x_displacement_sum="-0.0167533018588" y="699.990186143" y_displacement_sum="-0.00981385701433" />
    <node avg_slowdown_ratio="0.0" id="node_01x08" junction="True" old_x="100.0" old_y="800.0" type="priority" weight_num="4.0" weight_sum="0.0" x="99.9805474939" x_displacement_sum="-0.0194525060622" y="799.990085045" y_displacement_sum="-0.00991495543711" />
    <node avg_slowdown_ratio="0.0" id="node_01x09" junction="True" old_x="100.0" old_y="900.0" type="priority" weight_num="4.0" weight_sum="0.0" x="99.9773505271" x_displacement_sum="-0.0226494729444" y="899.990450373" y_displacement_sum="-0.0095496273626" />
    <node avg_slowdown_ratio="0.0" id="node_01x10" junction="True" old_x="100.0" old_y="1000.0" type="priority" weight_num="4.0" weight_sum="0.0" x="99.9738019142" x_displacement_sum="-0.0261980857531" y="999.991653134" y_displacement_sum="-0.00834686614406" />
    <node avg_slowdown_ratio="0.0" id="node_01x11" junction="True" old_x="100.0" old_y="1100.0" type="priority" weight_num="4.0" weight_sum="0.0" x="99.9703749906" x_displacement_sum="-0.0296250093975" y="1099.994075" y_displacement_sum="-0.00592500187948" />
    <node avg_slowdown_ratio="0.0" id="node_01x12" junction="True" old_x="100.0" old_y="1200.0" type="priority" weight_num="4.0" weight_sum="0.0" x="99.9679018366" x_displacement_sum="-0.0320981633886" y="1199.99783418" y_displacement_sum="-0.00216582480242" />
    <node avg_slowdown_ratio="0.0" id="node_01x13" junction="True" old_x="100.0" old_y="1300.0" type="priority" weight_num="4.0" weight_sum="0.0" x="99.9672767581" x_displacement_sum="-0.0327232419051" y="1300.00248273" y_displacement_sum="0.00248273126372" />
    <node avg_slowdown_ratio="0.0" id="node_01x14" junction="True" old_x="100.0" old_y="1400.0" type="priority" weight_num="4.0" weight_sum="0.0" x="99.9688875817" x_displacement_sum="-0.0311124182985" y="1400.00704887" y_displacement_sum="0.00704886814007" />
    <node avg_slowdown_ratio="0.0" id="node_01x15" junction="True" old_x="100.0" old_y="1500.0" type="priority" weight_num="4.0" weight_sum="0.0" x="99.9723026306" x_displacement_sum="-0.027697369374" y="1500.01056491" y_displacement_sum="0.01056491041" />
    <node avg_slowdown_ratio="0.0" id="node_01x16" junction="True" old_x="100.0" old_y="1600.0" type="priority" weight_num="4.0" weight_sum="0.0" x="99.9765851541" x_displacement_sum="-0.0234148458701" y="1600.01259567" y_displacement_sum="0.0125956718751" />
    <node avg_slowdown_ratio="0.0" id="node_01x17" junction="True" old_x="100.0" old_y="1700.0" type="priority" weight_num="4.0" weight_sum="0.0" x="99.9808643714" x_displacement_sum="-0.0191356285901" y="1700.01328145" y_displacement_sum="0.0132814492544" />
    <node avg_slowdown_ratio="0.0" id="node_01x18" junction="True" old_x="100.0" old_y="1800.0" type="priority" weight_num="4.0" weight_sum="0.0" x="99.9846355643" x_displacement_sum="-0.0153644357272" y="1800.01303534" y_displacement_sum="0.013035339028" />
    <node avg_slowdown_ratio="0.0" id="node_01x19" junction="True" old_x="100.0" old_y="1900.0" type="priority" weight_num="4.0" weight_sum="0.0" x="99.9877326787" x_displacement_sum="-0.0122673212679" y="1900.01226732" y_displacement_sum="0.0122673212679" />
    <node avg_slowdown_ratio="0.0" id="node_01x20" junction="True" old_x="100.0" old_y="2000.0" type="priority" weight_num="3.0" weight_sum="0.0" x="99.9901836741" x_displacement_sum="-0.00981632590081" y="2000.01127192" y_displacement_sum="0.0112719244721" />
    <node avg_slowdown_ratio="0.0" id="node_02x00" junction="True" old_x="200.0" old_y="0.0" type="priority" weight_num="3.0" weight_sum="0.0" x="199.993191783" x_displacement_sum="-0.00680821720341" y="-0.00796341362665" y_displacement_sum="-0.00796341362665" />
    <node avg_slowdown_ratio="0.0" id="node_02x01" junction="True" old_x="200.0" old_y="100.0" type="priority" weight_num="4.0" weight_sum="0.0" x="199.992138142" x_displacement_sum="-0.00786185806257" y="99.991494121" y_displacement_sum="-0.00850587904398" />
    <node avg_slowdown_ratio="0.0" id="node_02x02" junction="True" old_x="200.0" old_y="200.0" type="priority" weight_num="4.0" weight_sum="0.0" x="199.990936876" x_displacement_sum="-0.00906312394554" y="199.990936876" y_displacement_sum="-0.00906312394554" />
    <node avg_slowdown_ratio="0.0" id="node_02x03" junction="True" old_x="200.0" old_y="300.0" type="priority" weight_num="4.0" weight_sum="0.0" x="199.98957" x_displacement_sum="-0.0104300003654" y="299.990357055" y_displacement_sum="-0.0096429450743" />
    <node avg_slowdown_ratio="0.0" id="node_02x04" junction="True" old_x="200.0" old_y="400.0" type="priority" weight_num="4.0" weight_sum="0.0" x="199.988005844" x_displacement_sum="-0.0119941559273" y="399.989736648" y_displacement_sum="-0.0102633524543" />
    <node avg_slowdown_ratio="0.0" id="node_02x05" junction="True" old_x="200.0" old_y="500.0" type="priority" weight_num="4.0" weight_sum="0.0" x="199.98618395" x_displacement_sum="-0.0138160496243" y="499.989048736" y_displacement_sum="-0.0109512643772" />
    <node avg_slowdown_ratio="0.0" id="node_02x06" junction="True" old_x="200.0" old_y="600.0" type="priority" weight_num="4.0" weight_sum="0.0" x="199.983993903" x_displacement_sum="-0.0160060974843" y="599.988269957" y_displacement_sum="-0.0117300434987" />
    <node avg_slowdown_ratio="0.0" id="node_02x07" junction="True" old_x="200.0" old_y="700.0" type="priority" weight_num="4.0" weight_sum="0.0" x="199.981254217" x_displacement_sum="-0.0187457834263" y="699.987415275" y_displacement_sum="-0.0125847246643" />
    <node avg_slowdown_ratio="0.0" id="node_02x08" junction="True" old_x="200.0" old_y="800.0" type="priority" weight_num="4.0" weight_sum="0.0" x="199.977710864" x_displacement_sum="-0.0222891362377" y="799.986609608" y_displacement_sum="-0.0133903920881" />
    <node avg_slowdown_ratio="0.0" id="node_02x09" junction="True" old_x="200.0" old_y="900.0" type="priority" weight_num="4.0" weight_sum="0.0" x="199.973102838" x_displacement_sum="-0.0268971616405" y="899.986204558" y_displacement_sum="-0.0137954419897" />
    <node avg_slowdown_ratio="0.0" id="node_02x10" junction="True" old_x="200.0" old_y="1000.0" type="priority" weight_num="4.0" weight_sum="0.0" x="199.96738186" x_displacement_sum="-0.0326181402304" y="999.986901189" y_displacement_sum="-0.0130988108727" />
    <node avg_slowdown_ratio="0.0" id="node_02x11" junction="True" old_x="200.0" old_y="1100.0" type="priority" weight_num="4.0" weight_sum="0.0" x="199.961151745" x_displacement_sum="-0.0388482549713" y="1099.98969532" y_displacement_sum="-0.0103046760155" />
    <node avg_slowdown_ratio="0.0" id="node_02x12" junction="True" old_x="200.0" old_y="1200.0" type="priority" weight_num="4.0" weight_sum="0.0" x="199.956081613" x_displacement_sum="-0.0439183867158" y="1199.99529473" y_displacement_sum="-0.00470527156767" />
    <node avg_slowdown_ratio="0.0" id="node_02x13" junction="True" old_x="200.0" old_y="1300.0" type="priority" weight_num="4.0" weight_sum="0.0" x="199.954441132" x_displacement_sum="-0.0455588681553" y="1300.00304782" y_displacement_sum="0.00304781773712" />
    <node avg_slowdown_ratio="0.0" id="node_02x14" junction="True" old_x="200.0" old_y="1400.0" type="priority" weight_num="4.0" weight_sum="0.0" x="199.957353369" x_displacement_sum="-0.0426466307682" y="1400.01069332" y_displacement_sum="0.0106933152875" />
    <node avg_slowdown_ratio="0.0" id="node_02x15" junction="True" old_x="200.0" old_y="1500.0" type="priority" weight_num="4.0" weight_sum="0.0" x="199.963638213" x_displacement_sum="-0.0363617867657" y="1500.01597437" y_displacement_sum="0.0159743726067" />
    <node avg_slowdown_ratio="0.0" id="node_02x16" junction="True" old_x="200.0" old_y="1600.0" type="priority" weight_num="4.0" weight_sum="0.0" x="199.970969064" x_displacement_sum="-0.0290309362861" y="1600.01825392" y_displacement_sum="0.0182539174094" />
    <node avg_slowdown_ratio="0.0" id="node_02x17" junction="True" old_x="200.0" old_y="1700.0" type="priority" weight_num="4.0" weight_sum="0.0" x="199.977622396" x_displacement_sum="-0.0223776036538" y="1700.01826707" y_displacement_sum="0.0182670721584" />
    <node avg_slowdown_ratio="0.0" id="node_02x18" junction="True" old_x="200.0" old_y="1800.0" type="priority" weight_num="4.0" weight_sum="0.0" x="199.982948221" x_displacement_sum="-0.017051779328" y="1800.01705178" y_displacement_sum="0.017051779328" />
    <node avg_slowdown_ratio="0.0" id="node_02x19" junction="True" old_x="200.0" old_y="1900.0" type="priority" weight_num="4.0" weight_sum="0.0" x="199.986964661" x_displacement_sum="-0.013035339028" y="1900.01536444" y_displacement_sum="0.0153644357272" />
    <node avg_slowdown_ratio="0.0" id="node_02x20" junction="True" old_x="200.0" old_y="2000.0" type="priority" weight_num="3.0" weight_sum="0.0" x="199.989925301" x_displacement_sum="-0.0100746987964" y="2000.01361895" y_displacement_sum="0.0136189528352" />
    <node avg_slowdown_ratio="0.0" id="node_03x00" junction="True" old_x="300.0" old_y="0.0" type="priority" weight_num="3.0" weight_sum="0.0" x="299.992917249" x_displacement_sum="-0.00708275119915" y="-0.00900862322379" y_displacement_sum="-0.00900862322379" />
    <node avg_slowdown_ratio="0.0" id="node_03x01" junction="True" old_x="300.0" old_y="100.0" type="priority" weight_num="4.0" weight_sum="0.0" x="299.991724444" x_displacement_sum="-0.00827555636323" y="99.9902946647" y_displacement_sum="-0.00970533532153" />
    <node avg_slowdown_ratio="0.0" id="node_03x02" junction="True" old_x="300.0" old_y="200.0" type="priority" weight_num="4.0" weight_sum="0.0" x="299.990357055" x_displacement_sum="-0.0096429450743" y="199.98957" y_displacement_sum="-0.0104300003654" />
    <node avg_slowdown_ratio="0.0" id="node_03x03" junction="True" old_x="300.0" old_y="300.0" type="priority" weight_num="4.0" weight_sum="0.0" x="299.988802314" x_displacement_sum="-0.011197685669" y="299.988802314" y_displacement_sum="-0.011197685669" />
    <node avg_slowdown_ratio="0.0" id="node_03x04" junction="True" old_x="300.0" old_y="400.0" type="priority" weight_num="4.0" weight_sum="0.0" x="299.987034949" x_displacement_sum="-0.0129650507929" y="399.987951724" y_displacement_sum="-0.0120482764339" />
    <node avg_slowdown_ratio="0.0" id="node_03x05" junction="True" old_x="300.0" old_y="500.0" type="priority" weight_num="4.0" weight_sum="0.0" x="299.984991982" x_displacement_sum="-0.0150080175942" y="499.986943335" y_displacement_sum="-0.0130566651369" />
    <node avg_slowdown_ratio="0.0" id="node_03x06" junction="True" old_x="300.0" old_y="600.0" type="priority" weight_num="4.0" weight_sum="0.0" x="299.982527828" x_displacement_sum="-0.0174721720922" y="599.985667554" y_displacement_sum="-0.0143324461689" />
    <node avg_slowdown_ratio="0.0" id="node_03x07" junction="True" old_x="300.0" old_y="700.0" type="priority" weight_num="4.0" weight_sum="0.0" x="299.979347568" x_displacement_sum="-0.020652432192" y="699.984010553" y_displacement_sum="-0.015989447424" />
    <node avg_slowdown_ratio="0.0" id="node_03x08" junction="True" old_x="300.0" old_y="800.0" type="priority" weight_num="4.0" weight_sum="0.0" x="299.974929744" x_displacement_sum="-0.025070255799" y="799.981952607" y_displacement_sum="-0.0180473929369" />
    <node avg_slowdown_ratio="0.0" id="node_03x09" junction="True" old_x="300.0" old_y="900.0" type="priority" weight_num="4.0" weight_sum="0.0" x="299.968496949" x_displacement_sum="-0.0315030505331" y="899.979803196" y_displacement_sum="-0.0201968038321" />
    <node avg_slowdown_ratio="0.0" id="node_03x10" junction="True" old_x="300.0" old_y="1000.0" type="priority" weight_num="4.0" weight_sum="0.0" x="299.959241967" x_displacement_sum="-0.0407580325354" y="999.9786516" y_displacement_sum="-0.0213484001747" />
    <node avg_slowdown_ratio="0.0" id="node_03x11" junction="True" old_x="300.0" old_y="1100.0" type="priority" weight_num="4.0" weight_sum="0.0" x="299.94731249" x_displacement_sum="-0.0526875096534" y="1099.98085476" y_displacement_sum="-0.0191452426109" />
    <node avg_slowdown_ratio="0.0" id="node_03x12" junction="True" old_x="300.0" old_y="1200.0" type="priority" weight_num="4.0" weight_sum="0.0" x="299.935823613" x_displacement_sum="-0.0641763868291" y="1199.9893186" y_displacement_sum="-0.0106813971776" />
    <node avg_slowdown_ratio="0.0" id="node_03x13" junction="True" old_x="300.0" old_y="1300.0" type="priority" weight_num="4.0" weight_sum="0.0" x="299.931244441" x_displacement_sum="-0.0687555593366" y="1300.00378033" y_displacement_sum="0.00378033344204" />
    <node avg_slowdown_ratio="0.0" id="node_03x14" junction="True" old_x="300.0" old_y="1400.0" type="priority" weight_num="4.0" weight_sum="0.0" x="299.937479637" x_displacement_sum="-0.0625203632106" y="1400.0181025" y_displacement_sum="0.0181024998921" />
    <node avg_slowdown_ratio="0.0" id="node_03x15" junction="True" old_x="300.0" old_y="1500.0" type="priority" weight_num="4.0" weight_sum="0.0" x="299.95055287" x_displacement_sum="-0.0494471299962" y="1500.02615096" y_displacement_sum="0.0261509551729" />
    <node avg_slowdown_ratio="0.0" id="node_03x16" junction="True" old_x="300.0" old_y="1600.0" type="priority" weight_num="4.0" weight_sum="0.0" x="299.963919397" x_displacement_sum="-0.0360806028225" y="1600.027676" y_displacement_sum="0.0276759982639" />
    <node avg_slowdown_ratio="0.0" id="node_03x17" junction="True" old_x="300.0" old_y="1700.0" type="priority" weight_num="4.0" weight_sum="0.0" x="299.974385833" x_displacement_sum="-0.0256141668075" y="1700.02561417" y_displacement_sum="0.0256141668075" />
    <node avg_slowdown_ratio="0.0" id="node_03x18" junction="True" old_x="300.0" old_y="1800.0" type="priority" weight_num="4.0" weight_sum="0.0" x="299.981732928" x_displacement_sum="-0.0182670721584" y="1800.0223776" y_displacement_sum="0.0223776036538" />
    <node avg_slowdown_ratio="0.0" id="node_03x19" junction="True" old_x="300.0" old_y="1900.0" type="priority" weight_num="4.0" weight_sum="0.0" x="299.986718551" x_displacement_sum="-0.0132814492544" y="1900.01913563" y_displacement_sum="0.0191356285901" />
    <node avg_slowdown_ratio="0.0" id="node_03x20" junction="True" old_x="300.0" old_y="2000.0" type="priority" weight_num="3.0" weight_sum="0.0" x="299.990107638" x_displacement_sum="-0.0098923624358" y="2000.01629241" y_displacement_sum="0.0162924063374" />
    <node avg_slowdown_ratio="0.0" id="node_04x00" junction="True" old_x="400.0" old_y="0.0" type="priority" weight_num="3.0" weight_sum="0.0" x="399.992670085" x_displacement_sum="-0.0073299148708" y="-0.0101893868881" y_displacement_sum="-0.0101893868881" />
    <node avg_slowdown_ratio="0.0" id="node_04x01" junction="True" old_x="400.0" old_y="100.0" type="priority" weight_num="4.0" weight_sum="0.0" x="399.99130952" x_displacement_sum="-0.00869047998817" y="99.9889261503" y_displacement_sum="-0.0110738496949" />
    <node avg_slowdown_ratio="0.0" id="node_04x02" junction="True" old_x="400.0" old_y="200.0" type="priority" weight_num="4.0" weight_sum="0.0" x="399.989736648" x_displacement_sum="-0.0102633524543" y="199.988005844" y_displacement_sum="-0.0119941559273" />
    <node avg_slowdown_ratio="0.0" id="node_04x03" junction="True" old_x="400.0" old_y="300.0" type="priority" weight_num="4.0" weight_sum="0.0" x="399.987951724" x_displacement_sum="-0.0120482764339" y="299.987034949" y_displacement_sum="-0.0129650507929" />
    <node avg_slowdown_ratio="0.0" id="node_04x04" junction="True" old_x="400.0" old_y="400.0" type="priority" weight_num="4.0" weight_sum="0.0" x="399.985955551" x_displacement_sum="-0.0140444488995" y="399.985955551" y_displacement_sum="-0.0140444488995" />
    <node avg_slowdown_ratio="0.0" id="node_04x05" junction="True" old_x="400.0" old_y="500.0" type="priority" weight_num="4.0" weight_sum="0.0" x="399.983717267" x_displacement_sum="-0.0162827327326" y="499.984632522" y_displacement_sum="-0.0153674784529" />
    <node avg_slowdown_ratio="0.0" id="node_04x06" junction="True" old_x="400.0" old_y="600.0" type="priority" weight_num="4.0" weight_sum="0.0" x="399.98110137" x_displacement_sum="-0.0188986296668" y="599.982818325" y_displacement_sum="-0.0171816753029" />
    <node avg_slowdown_ratio="0.0" id="node_04x07" junction="True" old_x="400.0" old_y="700.0" type="priority" weight_num="4.0" weight_sum="0.0" x="399.977732284" x_displacement_sum="-0.0222677158894" y="699.98013815" y_displacement_sum="-0.0198618501098" />
    <node avg_slowdown_ratio="0.0" id="node_04x08" junction="True" old_x="400.0" old_y="800.0" type="priority" weight_num="4.0" weight_sum="0.0" x="399.972766859" x_displacement_sum="-0.027233141032" y="799.976143533" y_displacement_sum="-0.0238564665843" />
    <node avg_slowdown_ratio="0.0" id="node_04x09" junction="True" old_x="400.0" old_y="900.0" type="priority" weight_num="4.0" weight_sum="0.0" x="399.964540993" x_displacement_sum="-0.0354590068145" y="899.970573324" y_displacement_sum="-0.0294266761915" />
    <node avg_slowdown_ratio="0.0" id="node_04x10" junction="True" old_x="400.0" old_y="1000.0" type="priority" weight_num="4.0" weight_sum="0.0" x="399.950211235" x_displacement_sum="-0.0497887647319" y="999.964255684" y_displacement_sum="-0.0357443158324" />
    <node avg_slowdown_ratio="0.0" id="node_04x11" junction="True" old_x="400.0" old_y="1100.0" type="priority" weight_num="4.0" weight_sum="0.0" x="399.926628255" x_displacement_sum="-0.0733717449224" y="1099.96154545" y_displacement_sum="-0.0384545463636" />
    <node avg_slowdown_ratio="0.0" id="node_04x12" junction="True" old_x="400.0" old_y="1200.0" type="priority" weight_num="4.0" weight_sum="0.0" x="399.89695914" x_displacement_sum="-0.103040859631" y="1199.97297823" y_displacement_sum="-0.0270217713801" />
    <node avg_slowdown_ratio="0.0" id="node_04x13" junction="True" old_x="400.0" old_y="1300.0" type="priority" weight_num="4.0" weight_sum="0.0" x="399.881862461" x_displacement_sum="-0.118137538588" y="1300.00473761" y_displacement_sum="0.00473761405157" />
    <node avg_slowdown_ratio="0.0" id="node_04x14" junction="True" old_x="400.0" old_y="1400.0" type="priority" weight_num="4.0" weight_sum="0.0" x="399.899132401" x_displacement_sum="-0.100867598758" y="1400.03631923" y_displacement_sum="0.0363192301134" />
    <node avg_slowdown_ratio="0.0" id="node_04x15" junction="True" old_x="400.0" old_y="1500.0" type="priority" weight_num="4.0" weight_sum="0.0" x="399.930891374" x_displacement_sum="-0.0691086257446" y="1500.04721705" y_displacement_sum="0.047217047396" />
    <node avg_slowdown_ratio="0.0" id="node_04x16" junction="True" old_x="400.0" old_y="1600.0" type="priority" weight_num="4.0" weight_sum="0.0" x="399.956382858" x_displacement_sum="-0.0436171422859" y="1600.04361714" y_displacement_sum="0.0436171422859" />
    <node avg_slowdown_ratio="0.0" id="node_04x17" junction="True" old_x="400.0" old_y="1700.0" type="priority" weight_num="4.0" weight_sum="0.0" x="399.972324002" x_displacement_sum="-0.0276759982639" y="1700.0360806" y_displacement_sum="0.0360806028225" />
    <node avg_slowdown_ratio="0.0" id="node_04x18" junction="True" old_x="400.0" old_y="1800.0" type="priority" weight_num="4.0" weight_sum="0.0" x="399.981746083" x_displacement_sum="-0.0182539174094" y="1800.02903094" y_displacement_sum="0.0290309362861" />
    <node avg_slowdown_ratio="0.0" id="node_04x19" junction="True" old_x="400.0" old_y="1900.0" type="priority" weight_num="4.0" weight_sum="0.0" x="399.987404328" x_displacement_sum="-0.0125956718751" y="1900.02341485" y_displacement_sum="0.0234148458701" />
    <node avg_slowdown_ratio="0.0" id="node_04x20" junction="True" old_x="400.0" old_y="2000.0" type="priority" weight_num="3.0" weight_sum="0.0" x="399.990937977" x_displacement_sum="-0.00906202312471" y="2000.01912232" y_displacement_sum="0.0191223199828" />
    <node avg_slowdown_ratio="0.0" id="node_05x00" junction="True" old_x="500.0" old_y="0.0" type="priority" weight_num="3.0" weight_sum="0.0" x="499.992466514" x_displacement_sum="-0.00753348642734" y="-0.0115322970349" y_displacement_sum="-0.0115322970349" />
    <node avg_slowdown_ratio="0.0" id="node_05x01" junction="True" old_x="500.0" old_y="100.0" type="priority" weight_num="4.0" weight_sum="0.0" x="499.990895755" x_displacement_sum="-0.00910424471418" y="99.9873442941" y_displacement_sum="-0.012655705866" />
    <node avg_slowdown_ratio="0.0" id="node_05x02" junction="True" old_x="500.0" old_y="200.0" type="priority" weight_num="4.0" weight_sum="0.0" x="499.989048736" x_displacement_sum="-0.0109512643772" y="199.98618395" y_displacement_sum="-0.0138160496243" />
    <node avg_slowdown_ratio="0.0" id="node_05x03" junction="True" old_x="500.0" old_y="300.0" type="priority" weight_num="4.0" weight_sum="0.0" x="499.986943335" x_displacement_sum="-0.0130566651369" y="299.984991982" y_displacement_sum="-0.0150080175942" />
    <node avg_slowdown_ratio="0.0" id="node_05x04" junction="True" old_x="500.0" old_y="400.0" type="priority" weight_num="4.0" weight_sum="0.0" x="499.984632522" x_displacement_sum="-0.0153674784528" y="399.983717267" y_displacement_sum="-0.0162827327326" />
    <node avg_slowdown_ratio="0.0" id="node_05x05" junction="True" old_x="500.0" old_y="500.0" type="priority" weight_num="4.0" weight_sum="0.0" x="499.982179337" x_displacement_sum="-0.0178206627468" y="499.982179337" y_displacement_sum="-0.0178206627468" />
    <node avg_slowdown_ratio="0.0" id="node_05x06" junction="True" old_x="500.0" old_y="600.0" type="priority" weight_num="4.0" weight_sum="0.0" x="499.979565491" x_displacement_sum="-0.0204345087269" y="599.979964247" y_displacement_sum="-0.0200357529818" />