<?xml version='1.0' encoding='UTF-8'?>
<nodes xmlns:xsi="http://www.w3.org/2001/XMLSchema-instance" version="0.27" xsi:noNamespaceSchemaLocation="http://sumo.dlr.de/xsd/edges_file.xsd"><node avg_slowdown_ratio="0.348272138228" id="node_12x06" type="right_before_left" weight_num="4.0" weight_sum="1.39308855291" x="1200.00" y="600.00" />
    <node avg_slowdown_ratio="0.34683225342" id="node_08x05" type="right_before_left" weight_num="4.0" weight_sum="1.38732901368" x="800.00" y="500.00" />
    <node avg_slowdown_ratio="0.340172786178" id="node_12x11" type="right_before_left" weight_num="4.0" weight_sum="1.36069114471" x="1200.00" y="1100.00" />
    <node avg_slowdown_ratio="0.339992800577" id="node_12x12" type="right_before_left" weight_num="4.0" weight_sum="1.35997120231" x="1200.00" y="1200.00" />
    <node avg_slowdown_ratio="0.338552915768" id="node_09x09" type="right_before_left" weight_num="4.0" weight_sum="1.35421166307" x="900.00" y="900.00" />
    <node avg_slowdown_ratio="0.326133909288" id="node_13x13" type="right_before_left" weight_num="4.0" weight_sum="1.30453563715" x="1300.00" y="1300.00" />
    <node avg_slowdown_ratio="0.325233981282" id="node_12x09" type="right_before_left" weight_num="4.0" weight_sum="1.30093592513" x="1200.00" y="900.00" />
    <node avg_slowdown_ratio="0.32343412527" id="node_08x16" type="right_before_left" weight_num="4.0" weight_sum="1.29373650108" x="800.00" y="1600.00" />
    <node avg_slowdown_ratio="0.32037437005" id="node_12x10" type="right_before_left" weight_num="4.0" weight_sum="1.2814974802" x="1200.00" y="1000.00" />
    <node avg_slowdown_ratio="0.316534677226" id="node_12x05" type="right_before_left" weight_num="3.0" weight_sum="0.949604031678" x="1200.00" y="500.00" />
    <node avg_slowdown_ratio="0.3126349892" id="node_07x09" type="right_before_left" weight_num="4.0" weight_sum="1.2505399568" x="700.00" y="900.00" />
    <node avg_slowdown_ratio="0.312275017998" id="node_06x14" type="right_before_left" weight_num="4.0" weight_sum="1.24910007199" x="600.00" y="1400.00" />
    <node avg_slowdown_ratio="0.312215022798" id="node_00x13" type="right_before_left" weight_num="3.0" weight_sum="0.936645068395" x="0.00" y="1300.00" />
    <node avg_slowdown_ratio="0.311915046795" id="node_10x12" type="right_before_left" weight_num="4.0" weight_sum="1.24766018718" x="1000.00" y="1200.00" />
    <node avg_slowdown_ratio="0.310475161988" id="node_04x09" type="right_before_left" weight_num="4.0" weight_sum="1.24190064795" x="400.00" y="900.00" />
    <node avg_slowdown_ratio="0.306935445164" id="node_08x09" type="right_before_left" weight_num="3.0" weight_sum="0.920806335493" x="800.00" y="900.00" />
    <node avg_slowdown_ratio="0.30621550276" id="node_15x05" type="right_before_left" weight_num="3.0" weight_sum="0.91864650828" x="1500.00" y="500.00" />
    <node avg_slowdown_ratio="0.30471562275" id="node_06x05" type="right_before_left" weight_num="4.0" weight_sum="1.218862491" x="600.00" y="500.00" />
    <node avg_slowdown_ratio="0.303995680345" id="node_12x08" type="right_before_left" weight_num="4.0" weight_sum="1.21598272138" x="1200.00" y="800.00" />
    <node avg_slowdown_ratio="0.30327573794" id="node_12x07" type="right_before_left" weight_num="4.0" weight_sum="1.21310295176" x="1200.00" y="700.00" />
    <node avg_slowdown_ratio="0.300455963523" id="node_01x08" type="right_before_left" weight_num="3.0" weight_sum="0.901367890569" x="100.00" y="800.00" />
    <node avg_slowdown_ratio="0.297516198705" id="node_04x14" type="right_before_left" weight_num="4.0" weight_sum="1.19006479482" x="400.00" y="1400.00" />
    <node avg_slowdown_ratio="0.2967962563" id="node_06x09" type="right_before_left" weight_num="4.0" weight_sum="1.1871850252" x="600.00" y="900.00" />
    <node avg_slowdown_ratio="0.293196544278" id="node_09x10" type="right_before_left" weight_num="4.0" weight_sum="1.17278617711" x="900.00" y="1000.00" />
    <node avg_slowdown_ratio="0.292776577874" id="node_08x15" type="right_before_left" weight_num="3.0" weight_sum="0.878329733622" x="800.00" y="1500.00" />
    <node avg_slowdown_ratio="0.291816654668" id="node_00x14" type="right_before_left" weight_num="3.0" weight_sum="0.875449964003" x="0.00" y="1400.00" />
    <node avg_slowdown_ratio="0.291576673866" id="node_00x05" type="right_before_left" weight_num="2.0" weight_sum="0.583153347732" x="0.00" y="500.00" />
    <node avg_slowdown_ratio="0.29067674586" id="node_04x10" type="right_before_left" weight_num="4.0" weight_sum="1.16270698344" x="400.00" y="1000.00" />
    <node avg_slowdown_ratio="0.289896808255" id="node_08x03" type="right_before_left" weight_num="3.0" weight_sum="0.869690424765" x="800.00" y="300.00" />
    <node avg_slowdown_ratio="0.289596832252" id="node_12x16" type="right_before_left" weight_num="4.0" weight_sum="1.15838732901" x="1200.00" y="1600.00" />
    <node avg_slowdown_ratio="0.288876889847" id="node_14x02" type="right_before_left" weight_num="4.0" weight_sum="1.15550755939" x="1400.00" y="200.00" />
    <node avg_slowdown_ratio="0.28743700504" id="node_17x09" type="right_before_left" weight_num="4.0" weight_sum="1.14974802016" x="1700.00" y="900.00" />
    <node avg_slowdown_ratio="0.287257019438" id="node_00x17" type="right_before_left" weight_num="3.0" weight_sum="0.861771058315" x="0.00" y="1700.00" />
    <node avg_slowdown_ratio="0.287077033837" id="node_01x09" type="right_before_left" weight_num="4.0" weight_sum="1.14830813535" x="100.00" y="900.00" />
    <node avg_slowdown_ratio="0.286177105833" id="node_08x13" type="right_before_left" weight_num="4.0" weight_sum="1.14470842333" x="800.00" y="1300.00" />
    <node avg_slowdown_ratio="0.286177105832" id="node_02x00" type="right_before_left" weight_num="2.0" weight_sum="0.572354211663" x="200.00" y="0.00" />
    <node avg_slowdown_ratio="0.28599712023" id="node_14x13" type="right_before_left" weight_num="4.0" weight_sum="1.14398848092" x="1400.00" y="1300.00" />
    <node avg_slowdown_ratio="0.28581713463" id="node_06x12" type="right_before_left" weight_num="4.0" weight_sum="1.14326853852" x="600.00" y="1200.00" />
    <node avg_slowdown_ratio="0.28455723542" id="node_17x10" type="right_before_left" weight_num="4.0" weight_sum="1.13822894168" x="1700.00" y="1000.00" />
    <node avg_slowdown_ratio="0.283657307415" id="node_15x06" type="right_before_left" weight_num="4.0" weight_sum="1.13462922966" x="1500.00" y="600.00" />
    <node avg_slowdown_ratio="0.283177345813" id="node_19x04" type="right_before_left" weight_num="3.0" weight_sum="0.849532037438" x="1900.00" y="400.00" />
    <node avg_slowdown_ratio="0.28275737941" id="node_17x05" type="right_before_left" weight_num="4.0" weight_sum="1.13102951764" x="1700.00" y="500.00" />
    <node avg_slowdown_ratio="0.282217422605" id="node_08x12" type="right_before_left" weight_num="4.0" weight_sum="1.12886969042" x="800.00" y="1200.00" />
    <node avg_slowdown_ratio="0.2813174946" id="node_12x13" type="right_before_left" weight_num="4.0" weight_sum="1.1252699784" x="1200.00" y="1300.00" />
    <node avg_slowdown_ratio="0.280777537797" id="node_11x02" type="right_before_left" weight_num="4.0" weight_sum="1.12311015119" x="1100.00" y="200.00" />
    <node avg_slowdown_ratio="0.280057595393" id="node_11x06" type="right_before_left" weight_num="2.0" weight_sum="0.560115190785" x="1100.00" y="600.00" />
    <node avg_slowdown_ratio="0.27987760979" id="node_05x14" type="right_before_left" weight_num="4.0" weight_sum="1.11951043916" x="500.00" y="1400.00" />
    <node avg_slowdown_ratio="0.27987760979" id="node_11x08" type="right_before_left" weight_num="4.0" weight_sum="1.11951043916" x="1100.00" y="800.00" />
    <node avg_slowdown_ratio="0.279817614591" id="node_09x04" type="right_before_left" weight_num="3.0" weight_sum="0.839452843773" x="900.00" y="400.00" />
    <node avg_slowdown_ratio="0.278617710583" id="node_07x15" type="right_before_left" weight_num="2.0" weight_sum="0.557235421166" x="700.00" y="1500.00" />
    <node avg_slowdown_ratio="0.277897768179" id="node_13x04" type="right_before_left" weight_num="3.0" weight_sum="0.833693304536" x="1300.00" y="400.00" />
    <node avg_slowdown_ratio="0.277537796977" id="node_17x03" type="right_before_left" weight_num="4.0" weight_sum="1.11015118791" x="1700.00" y="300.00" />
    <node avg_slowdown_ratio="0.277177825774" id="node_09x08" type="right_before_left" weight_num="3.0" weight_sum="0.831533477321" x="900.00" y="800.00" />
    <node avg_slowdown_ratio="0.276997840173" id="node_02x15" type="right_before_left" weight_num="4.0" weight_sum="1.10799136069" x="200.00" y="1500.00" />
    <node avg_slowdown_ratio="0.276817854571" id="node_20x00" type="right_before_left" weight_num="2.0" weight_sum="0.553635709143" x="2000.00" y="0.00" />
    <node avg_slowdown_ratio="0.27663786897" id="node_04x05" type="right_before_left" weight_num="4.0" weight_sum="1.10655147588" x="400.00" y="500.00" />
    <node avg_slowdown_ratio="0.27645788337" id="node_04x12" type="right_before_left" weight_num="4.0" weight_sum="1.10583153348" x="400.00" y="1200.00" />
    <node avg_slowdown_ratio="0.276457883369" id="node_10x10" type="right_before_left" weight_num="3.0" weight_sum="0.829373650108" x="1000.00" y="1000.00" />
    <node avg_slowdown_ratio="0.275917926565" id="node_17x12" type="right_before_left" weight_num="4.0" weight_sum="1.10367170626" x="1700.00" y="1200.00" />
    <node avg_slowdown_ratio="0.274298056155" id="node_07x10" type="right_before_left" weight_num="4.0" weight_sum="1.09719222462" x="700.00" y="1000.00" />
    <node avg_slowdown_ratio="0.274118070555" id="node_03x12" type="right_before_left" weight_num="4.0" weight_sum="1.09647228222" x="300.00" y="1200.00" />
    <node avg_slowdown_ratio="0.274058075354" id="node_04x08" type="right_before_left" weight_num="3.0" weight_sum="0.822174226062" x="400.00" y="800.00" />
    <node avg_slowdown_ratio="0.273938084953" id="node_20x20" type="right_before_left" weight_num="2.0" weight_sum="0.547876169906" x="2000.00" y="2000.00" />
<node avg_slowdown_ratio="0.273938084952" id="node_12x04" type="right_before_left" weight_num="4.0" weight_sum="1.09575233981" x="1200.00" y="400.00" />
    <node avg_slowdown_ratio="0.273578113751" id="node_20x05" type="right_before_left" weight_num="2.0" weight_sum="0.547156227502" x="2000.00" y="500.00" />
    <node avg_slowdown_ratio="0.272498200145" id="node_13x16" type="right_before_left" weight_num="4.0" weight_sum="1.08999280058" x="1300.00" y="1600.00" />
    <node avg_slowdown_ratio="0.272378209743" id="node_08x14" type="right_before_left" weight_num="3.0" weight_sum="0.817134629229" x="800.00" y="1400.00" />
    <node avg_slowdown_ratio="0.272318214542" id="node_10x19" type="right_before_left" weight_num="4.0" weight_sum="1.08927285817" x="1000.00" y="1900.00" />
    <node avg_slowdown_ratio="0.272138228943" id="node_12x18" type="right_before_left" weight_num="4.0" weight_sum="1.08855291577" x="1200.00" y="1800.00" />
    <node avg_slowdown_ratio="0.27195824334" id="node_05x18" type="right_before_left" weight_num="4.0" weight_sum="1.08783297336" x="500.00" y="1800.00" />
    <node avg_slowdown_ratio="0.27189824814" id="node_07x05" type="right_before_left" weight_num="3.0" weight_sum="0.81569474442" x="700.00" y="500.00" />
    <node avg_slowdown_ratio="0.271658267338" id="node_08x17" type="right_before_left" weight_num="3.0" weight_sum="0.814974802015" x="800.00" y="1700.00" />
    <node avg_slowdown_ratio="0.271598272137" id="node_13x10" type="right_before_left" weight_num="4.0" weight_sum="1.08639308855" x="1300.00" y="1000.00" />
    <node avg_slowdown_ratio="0.271178305736" id="node_05x09" type="right_before_left" weight_num="3.0" weight_sum="0.813534917207" x="500.00" y="900.00" />
    <node avg_slowdown_ratio="0.270698344132" id="node_10x03" type="right_before_left" weight_num="2.0" weight_sum="0.541396688265" x="1000.00" y="300.00" />
    <node avg_slowdown_ratio="0.270218382529" id="node_12x15" type="right_before_left" weight_num="3.0" weight_sum="0.810655147588" x="1200.00" y="1500.00" />
    <node avg_slowdown_ratio="0.269498440125" id="node_11x03" type="right_before_left" weight_num="3.0" weight_sum="0.808495320375" x="1100.00" y="300.00" />
    <node avg_slowdown_ratio="0.269438444925" id="node_01x19" type="right_before_left" weight_num="4.0" weight_sum="1.0777537797" x="100.00" y="1900.00" />
    <node avg_slowdown_ratio="0.269438444925" id="node_11x14" type="right_before_left" weight_num="4.0" weight_sum="1.0777537797" x="1100.00" y="1400.00" />
    <node avg_slowdown_ratio="0.268898488121" id="node_13x20" type="right_before_left" weight_num="2.0" weight_sum="0.537796976242" x="1300.00" y="2000.00" />
    <node avg_slowdown_ratio="0.26871850252" id="node_09x07" type="right_before_left" weight_num="4.0" weight_sum="1.07487401008" x="900.00" y="700.00" />
    <node avg_slowdown_ratio="0.268538516919" id="node_10x00" type="right_before_left" weight_num="2.0" weight_sum="0.537077033837" x="1000.00" y="0.00" />
    <node avg_slowdown_ratio="0.268298536117" id="node_13x00" type="right_before_left" weight_num="3.0" weight_sum="0.804895608351" x="1300.00" y="0.00" />
    <node avg_slowdown_ratio="0.268058555315" id="node_14x06" type="right_before_left" weight_num="3.0" weight_sum="0.804175665946" x="1400.00" y="600.00" />
    <node avg_slowdown_ratio="0.267998560115" id="node_02x14" type="right_before_left" weight_num="4.0" weight_sum="1.07199424046" x="200.00" y="1400.00" />
    <node avg_slowdown_ratio="0.267818574515" id="node_02x16" type="right_before_left" weight_num="4.0" weight_sum="1.07127429806" x="200.00" y="1600.00" />
    <node avg_slowdown_ratio="0.267818574514" id="node_13x12" type="right_before_left" weight_num="2.0" weight_sum="0.535637149028" x="1300.00" y="1200.00" />
    <node avg_slowdown_ratio="0.267458603312" id="node_20x03" type="right_before_left" weight_num="2.0" weight_sum="0.534917206623" x="2000.00" y="300.00" />
    <node avg_slowdown_ratio="0.26709863211" id="node_11x12" type="right_before_left" weight_num="4.0" weight_sum="1.06839452844" x="1100.00" y="1200.00" />
    <node avg_slowdown_ratio="0.26709863211" id="node_13x02" type="right_before_left" weight_num="4.0" weight_sum="1.06839452844" x="1300.00" y="200.00" />
    <node avg_slowdown_ratio="0.26709863211" id="node_14x14" type="right_before_left" weight_num="3.0" weight_sum="0.801295896329" x="1400.00" y="1400.00" />
    <node avg_slowdown_ratio="0.266858651308" id="node_11x07" type="right_before_left" weight_num="3.0" weight_sum="0.800575953924" x="1100.00" y="700.00" />
    <node avg_slowdown_ratio="0.266738660907" id="node_05x15" type="right_before_left" weight_num="4.0" weight_sum="1.06695464363" x="500.00" y="1500.00" />
    <node avg_slowdown_ratio="0.266738660907" id="node_09x16" type="right_before_left" weight_num="4.0" weight_sum="1.06695464363" x="900.00" y="1600.00" />
    <node avg_slowdown_ratio="0.266378689705" id="node_13x07" type="right_before_left" weight_num="4.0" weight_sum="1.06551475882" x="1300.00" y="700.00" />
    <node avg_slowdown_ratio="0.266198704105" id="node_04x11" type="right_before_left" weight_num="4.0" weight_sum="1.06479481642" x="400.00" y="1100.00" />
    <node avg_slowdown_ratio="0.266138708903" id="node_07x08" type="right_before_left" weight_num="3.0" weight_sum="0.79841612671" x="700.00" y="800.00" />
    <node avg_slowdown_ratio="0.266018718502" id="node_00x18" type="right_before_left" weight_num="2.0" weight_sum="0.532037437005" x="0.00" y="1800.00" />
    <node avg_slowdown_ratio="0.266018718502" id="node_15x10" type="right_before_left" weight_num="4.0" weight_sum="1.06407487401" x="1500.00" y="1000.00" />
    <node avg_slowdown_ratio="0.265838732902" id="node_11x04" type="right_before_left" weight_num="4.0" weight_sum="1.06335493161" x="1100.00" y="400.00" />
    <node avg_slowdown_ratio="0.265418766499" id="node_04x20" type="right_before_left" weight_num="3.0" weight_sum="0.796256299496" x="400.00" y="2000.00" />
    <node avg_slowdown_ratio="0.265418766498" id="node_11x10" type="right_before_left" weight_num="3.0" weight_sum="0.796256299495" x="1100.00" y="1000.00" />
    <node avg_slowdown_ratio="0.265298776098" id="node_06x15" type="right_before_left" weight_num="4.0" weight_sum="1.06119510439" x="600.00" y="1500.00" />
    <node avg_slowdown_ratio="0.265178785697" id="node_07x14" type="right_before_left" weight_num="3.0" weight_sum="0.795536357091" x="700.00" y="1400.00" />
    <node avg_slowdown_ratio="0.265178785697" id="node_19x02" type="right_before_left" weight_num="3.0" weight_sum="0.795536357091" x="1900.00" y="200.00" />
    <node avg_slowdown_ratio="0.265118790497" id="node_16x06" type="right_before_left" weight_num="4.0" weight_sum="1.06047516199" x="1600.00" y="600.00" />
    <node avg_slowdown_ratio="0.264938804896" id="node_19x13" type="right_before_left" weight_num="2.0" weight_sum="0.529877609792" x="1900.00" y="1300.00" />
    <node avg_slowdown_ratio="0.264758819295" id="node_12x14" type="right_before_left" weight_num="4.0" weight_sum="1.05903527718" x="1200.00" y="1400.00" />
    <node avg_slowdown_ratio="0.26421886249" id="node_02x11" type="right_before_left" weight_num="4.0" weight_sum="1.05687544996" x="200.00" y="1100.00" />
    <node avg_slowdown_ratio="0.26421886249" id="node_17x08" type="right_before_left" weight_num="4.0" weight_sum="1.05687544996" x="1700.00" y="800.00" />
    <node avg_slowdown_ratio="0.263978881689" id="node_13x06" type="right_before_left" weight_num="3.0" weight_sum="0.791936645068" x="1300.00" y="600.00" />
    <node avg_slowdown_ratio="0.263738900888" id="node_12x01" type="right_before_left" weight_num="3.0" weight_sum="0.791216702663" x="1200.00" y="100.00" />
    <node avg_slowdown_ratio="0.263738900888" id="node_16x20" type="right_before_left" weight_num="3.0" weight_sum="0.791216702664" x="1600.00" y="2000.00" />
    <node avg_slowdown_ratio="0.263498920087" id="node_09x13" type="right_before_left" weight_num="4.0" weight_sum="1.05399568035" x="900.00" y="1300.00" />
    <node avg_slowdown_ratio="0.263498920086" id="node_09x06" type="right_before_left" weight_num="2.0" weight_sum="0.526997840173" x="900.00" y="600.00" />
    <node avg_slowdown_ratio="0.263498920085" id="node_13x15" type="right_before_left" weight_num="4.0" weight_sum="1.05399568034" x="1300.00" y="1500.00" />
    <node avg_slowdown_ratio="0.262958963283" id="node_14x11" type="right_before_left" weight_num="4.0" weight_sum="1.05183585313" x="1400.00" y="1100.00" />
    <node avg_slowdown_ratio="0.262778977682" id="node_06x20" type="right_before_left" weight_num="3.0" weight_sum="0.788336933045" x="600.00" y="2000.00" />
    <node avg_slowdown_ratio="0.26253899688" id="node_14x15" type="right_before_left" weight_num="3.0" weight_sum="0.787616990641" x="1400.00" y="1500.00" />
    <node avg_slowdown_ratio="0.26253899688" id="node_18x18" type="right_before_left" weight_num="3.0" weight_sum="0.787616990641" x="1800.00" y="1800.00" />
    <node avg_slowdown_ratio="0.262299016079" id="node_03x00" type="right_before_left" weight_num="3.0" weight_sum="0.786897048236" x="300.00" y="0.00" />
    <node avg_slowdown_ratio="0.261699064075" id="node_18x12" type="right_before_left" weight_num="4.0" weight_sum="1.0467962563" x="1800.00" y="1200.00" />
    <node avg_slowdown_ratio="0.261699064074" id="node_09x01" type="right_before_left" weight_num="2.0" weight_sum="0.523398128149" x="900.00" y="100.00" />
    <node avg_slowdown_ratio="0.261099112071" id="node_20x14" type="right_before_left" weight_num="3.0" weight_sum="0.783297336212" x="2000.00" y="1400.00" />
    <node avg_slowdown_ratio="0.26097912167" id="node_09x17" type="right_before_left" weight_num="4.0" weight_sum="1.04391648668" x="900.00" y="1700.00" />
    <node avg_slowdown_ratio="0.260859131269" id="node_10x17" type="right_before_left" weight_num="3.0" weight_sum="0.782577393808" x="1000.00" y="1700.00" />
    <node avg_slowdown_ratio="0.260859131269" id="node_17x15" type="right_before_left" weight_num="3.0" weight_sum="0.782577393808" x="1700.00" y="1500.00" />
    <node avg_slowdown_ratio="0.260619150468" id="node_09x12" type="right_before_left" weight_num="4.0" weight_sum="1.04247660187" x="900.00" y="1200.00" />
    <node avg_slowdown_ratio="0.260379169667" id="node_04x07" type="right_before_left" weight_num="3.0" weight_sum="0.781137509" x="400.00" y="700.00" />
    <node avg_slowdown_ratio="0.260259179265" id="node_02x07" type="right_before_left" weight_num="4.0" weight_sum="1.04103671706" x="200.00" y="700.00" />
    <node avg_slowdown_ratio="0.260139188865" id="node_07x13" type="right_before_left" weight_num="3.0" weight_sum="0.780417566594" x="700.00" y="1300.00" />
    <node avg_slowdown_ratio="0.260079193665" id="node_03x06" type="right_before_left" weight_num="4.0" weight_sum="1.04031677466" x="300.00" y="600.00" />
    <node avg_slowdown_ratio="0.259899208064" id="node_06x06" type="right_before_left" weight_num="3.0" weight_sum="0.779697624191" x="600.00" y="600.00" />
    <node avg_slowdown_ratio="0.259899208062" id="node_11x05" type="right_before_left" weight_num="4.0" weight_sum="1.03959683225" x="1100.00" y="500.00" />
    <node avg_slowdown_ratio="0.259719222463" id="node_03x18" type="right_before_left" weight_num="4.0" weight_sum="1.03887688985" x="300.00" y="1800.00" />
    <node avg_slowdown_ratio="0.259719222463" id="node_15x04" type="right_before_left" weight_num="4.0" weight_sum="1.03887688985" x="1500.00" y="400.00" />
    <node avg_slowdown_ratio="0.25917926566" id="node_01x11" type="right_before_left" weight_num="4.0" weight_sum="1.03671706264" x="100.00" y="1100.00" />
    <node avg_slowdown_ratio="0.259179265659" id="node_08x06" type="right_before_left" weight_num="3.0" weight_sum="0.777537796976" x="800.00" y="600.00" />
    <node avg_slowdown_ratio="0.258939284857" id="node_01x15" type="right_before_left" weight_num="3.0" weight_sum="0.776817854572" x="100.00" y="1500.00" />
    <node avg_slowdown_ratio="0.258639308855" id="node_11x16" type="right_before_left" weight_num="4.0" weight_sum="1.03455723542" x="1100.00" y="1600.00" />
    <node avg_slowdown_ratio="0.258459323254" id="node_01x20" type="right_before_left" weight_num="2.0" weight_sum="0.516918646509" x="100.00" y="2000.00" />
    <node avg_slowdown_ratio="0.258459323254" id="node_04x03" type="right_before_left" weight_num="3.0" weight_sum="0.775377969763" x="400.00" y="300.00" />
    <node avg_slowdown_ratio="0.258459323254" id="node_10x11" type="right_before_left" weight_num="3.0" weight_sum="0.775377969762" x="1000.00" y="1100.00" />
    <node avg_slowdown_ratio="0.258279337652" id="node_15x08" type="right_before_left" weight_num="4.0" weight_sum="1.03311735061" x="1500.00" y="800.00" />
    <node avg_slowdown_ratio="0.258279337652" id="node_16x09" type="right_before_left" weight_num="4.0" weight_sum="1.03311735061" x="1600.00" y="900.00" />
    <node avg_slowdown_ratio="0.258219342452" id="node_00x04" type="right_before_left" weight_num="3.0" weight_sum="0.774658027357" x="0.00" y="400.00" />
    <node avg_slowdown_ratio="0.258099352053" id="node_04x15" type="right_before_left" weight_num="4.0" weight_sum="1.03239740821" x="400.00" y="1500.00" />
    <node avg_slowdown_ratio="0.25791936645" id="node_07x11" type="right_before_left" weight_num="4.0" weight_sum="1.0316774658" x="700.00" y="1100.00" />
    <node avg_slowdown_ratio="0.25773938085" id="node_11x17" type="right_before_left" weight_num="4.0" weight_sum="1.0309575234" x="1100.00" y="1700.00" />
    <node avg_slowdown_ratio="0.25773938085" id="node_14x17" type="right_before_left" weight_num="3.0" weight_sum="0.773218142549" x="1400.00" y="1700.00" />
    <node avg_slowdown_ratio="0.257499400048" id="node_09x11" type="right_before_left" weight_num="3.0" weight_sum="0.772498200144" x="900.00" y="1100.00" />
    <node avg_slowdown_ratio="0.257379409647" id="node_19x15" type="right_before_left" weight_num="2.0" weight_sum="0.514758819294" x="1900.00" y="1500.00" />
    <node avg_slowdown_ratio="0.257199424045" id="node_03x07" type="right_before_left" weight_num="4.0" weight_sum="1.02879769618" x="300.00" y="700.00" />
    <node avg_slowdown_ratio="0.257019438445" id="node_16x16" type="right_before_left" weight_num="2.0" weight_sum="0.51403887689" x="1600.00" y="1600.00" />
    <node avg_slowdown_ratio="0.257019438445" id="node_20x10" type="right_before_left" weight_num="2.0" weight_sum="0.51403887689" x="2000.00" y="1000.00" />
    <node avg_slowdown_ratio="0.256839452842" id="node_06x10" type="right_before_left" weight_num="4.0" weight_sum="1.02735781137" x="600.00" y="1000.00" />
    <node avg_slowdown_ratio="0.256779457643" id="node_16x14" type="right_before_left" weight_num="3.0" weight_sum="0.77033837293" x="1600.00" y="1400.00" />
    <node avg_slowdown_ratio="0.256659467242" id="node_06x13" type="right_before_left" weight_num="4.0" weight_sum="1.02663786897" x="600.00" y="1300.00" />
    <node avg_slowdown_ratio="0.256539476842" id="node_03x05" type="right_before_left" weight_num="3.0" weight_sum="0.769618430525" x="300.00" y="500.00" />
    <node avg_slowdown_ratio="0.256539476842" id="node_10x20" type="right_before_left" weight_num="3.0" weight_sum="0.769618430526" x="1000.00" y="2000.00" />
    <node avg_slowdown_ratio="0.25629949604" id="node_03x13" type="right_before_left" weight_num="3.0" weight_sum="0.768898488121" x="300.00" y="1300.00" />
    <node avg_slowdown_ratio="0.25629949604" id="node_06x01" type="right_before_left" weight_num="2.0" weight_sum="0.51259899208" x="600.00" y="100.00" />
    <node avg_slowdown_ratio="0.25611951044" id="node_03x10" type="right_before_left" weight_num="4.0" weight_sum="1.02447804176" x="300.00" y="1000.00" />
    <node avg_slowdown_ratio="0.255939524837" id="node_18x15" type="right_before_left" weight_num="4.0" weight_sum="1.02375809935" x="1800.00" y="1500.00" />
    <node avg_slowdown_ratio="0.255819534437" id="node_04x06" type="right_before_left" weight_num="3.0" weight_sum="0.767458603311" x="400.00" y="600.00" />
    <node avg_slowdown_ratio="0.255819534437" id="node_05x08" type="right_before_left" weight_num="3.0" weight_sum="0.767458603312" x="500.00" y="800.00" />
    <node avg_slowdown_ratio="0.255819534437" id="node_11x15" type="right_before_left" weight_num="3.0" weight_sum="0.767458603312" x="1100.00" y="1500.00" />
    <node avg_slowdown_ratio="0.255819534437" id="node_15x13" type="right_before_left" weight_num="3.0" weight_sum="0.767458603312" x="1500.00" y="1300.00" />
    <node avg_slowdown_ratio="0.255579553636" id="node_07x01" type="right_before_left" weight_num="3.0" weight_sum="0.766738660907" x="700.00" y="100.00" />
    <node avg_slowdown_ratio="0.255579553636" id="node_11x20" type="right_before_left" weight_num="2.0" weight_sum="0.511159107272" x="1100.00" y="2000.00" />
    <node avg_slowdown_ratio="0.255579553636" id="node_18x05" type="right_before_left" weight_num="2.0" weight_sum="0.511159107272" x="1800.00" y="500.00" />
    <node avg_slowdown_ratio="0.255399568035" id="node_03x11" type="right_before_left" weight_num="4.0" weight_sum="1.02159827214" x="300.00" y="1100.00" />
    <node avg_slowdown_ratio="0.255339572834" id="node_02x01" type="right_before_left" weight_num="3.0" weight_sum="0.766018718502" x="200.00" y="100.00" />
    <node avg_slowdown_ratio="0.255339572834" id="node_08x04" type="right_before_left" weight_num="3.0" weight_sum="0.766018718502" x="800.00" y="400.00" />
    <node avg_slowdown_ratio="0.255339572834" id="node_09x18" type="right_before_left" weight_num="3.0" weight_sum="0.766018718503" x="900.00" y="1800.00" />
    <node avg_slowdown_ratio="0.255219582432" id="node_17x18" type="right_before_left" weight_num="4.0" weight_sum="1.02087832973" x="1700.00" y="1800.00" />
    <node avg_slowdown_ratio="0.255099592033" id="node_11x19" type="right_before_left" weight_num="3.0" weight_sum="0.765298776098" x="1100.00" y="1900.00" />
    <node avg_slowdown_ratio="0.25467962563" id="node_15x16" type="right_before_left" weight_num="4.0" weight_sum="1.01871850252" x="1500.00" y="1600.00" />
    <node avg_slowdown_ratio="0.25467962563" id="node_16x03" type="right_before_left" weight_num="4.0" weight_sum="1.01871850252" x="1600.00" y="300.00" />
    <node avg_slowdown_ratio="0.25461963043" id="node_04x16" type="right_before_left" weight_num="3.0" weight_sum="0.763858891289" x="400.00" y="1600.00" />
    <node avg_slowdown_ratio="0.254619630429" id="node_09x05" type="right_before_left" weight_num="3.0" weight_sum="0.763858891288" x="900.00" y="500.00" />
    <node avg_slowdown_ratio="0.254499640029" id="node_01x02" type="right_before_left" weight_num="2.0" weight_sum="0.508999280057" x="100.00" y="200.00" />
    <node avg_slowdown_ratio="0.254499640029" id="node_16x00" type="right_before_left" weight_num="2.0" weight_sum="0.508999280058" x="1600.00" y="0.00" />
    <node avg_slowdown_ratio="0.254379649628" id="node_05x13" type="right_before_left" weight_num="3.0" weight_sum="0.763138948884" x="500.00" y="1300.00" />
    <node avg_slowdown_ratio="0.254139668827" id="node_10x01" type="right_before_left" weight_num="2.0" weight_sum="0.508279337653" x="1000.00" y="100.00" />
    <node avg_slowdown_ratio="0.253779697624" id="node_20x17" type="right_before_left" weight_num="2.0" weight_sum="0.507559395249" x="2000.00" y="1700.00" />
    <node avg_slowdown_ratio="0.253599712022" id="node_03x01" type="right_before_left" weight_num="4.0" weight_sum="1.01439884809" x="300.00" y="100.00" />
    <node avg_slowdown_ratio="0.253599712022" id="node_03x14" type="right_before_left" weight_num="4.0" weight_sum="1.01439884809" x="300.00" y="1400.00" />
    <node avg_slowdown_ratio="0.253599712022" id="node_08x02" type="right_before_left" weight_num="4.0" weight_sum="1.01439884809" x="800.00" y="200.00" />