<?xml version='1.0' encoding='UTF-8'?>
<nodes xmlns:xsi="http://www.w3.org/2001/XMLSchema-instance" version="0.27" xsi:noNamespaceSchemaLocation="http://sumo.dlr.de/xsd/edges_file.xsd"><node avg_slowdown_ratio="0.705363570915" id="node_12x13" type="right_before_left" weight_num="4.0" weight_sum="2.82145428366" x="1200.00" y="1300.00" />
    <node avg_slowdown_ratio="0.67944564435" id="node_14x13" type="right_before_left" weight_num="4.0" weight_sum="2.7177825774" x="1400.00" y="1300.00" />
    <node avg_slowdown_ratio="0.609071274297" id="node_12x12" type="right_before_left" weight_num="4.0" weight_sum="2.43628509719" x="1200.00" y="1200.00" />
    <node avg_slowdown_ratio="0.604211663065" id="node_13x13" type="right_before_left" weight_num="4.0" weight_sum="2.41684665226" x="1300.00" y="1300.00" />
    <node avg_slowdown_ratio="0.570734341252" id="node_08x05" type="right_before_left" weight_num="4.0" weight_sum="2.28293736501" x="800.00" y="500.00" />
    <node avg_slowdown_ratio="0.538156947445" id="node_09x09" type="right_before_left" weight_num="4.0" weight_sum="2.15262778978" x="900.00" y="900.00" />
    <node avg_slowdown_ratio="0.517638588913" id="node_12x09" type="right_before_left" weight_num="4.0" weight_sum="2.07055435565" x="1200.00" y="900.00" />
    <node avg_slowdown_ratio="0.515298776097" id="node_10x12" type="right_before_left" weight_num="4.0" weight_sum="2.06119510439" x="1000.00" y="1200.00" />
    <node avg_slowdown_ratio="0.48932085433" id="node_12x05" type="right_before_left" weight_num="3.0" weight_sum="1.46796256299" x="1200.00" y="500.00" />
    <node avg_slowdown_ratio="0.48794096472" id="node_12x11" type="right_before_left" weight_num="4.0" weight_sum="1.95176385888" x="1200.00" y="1100.00" />
    <node avg_slowdown_ratio="0.472642188625" id="node_12x14" type="right_before_left" weight_num="4.0" weight_sum="1.8905687545" x="1200.00" y="1400.00" />
    <node avg_slowdown_ratio="0.469402447805" id="node_12x06" type="right_before_left" weight_num="4.0" weight_sum="1.87760979122" x="1200.00" y="600.00" />
    <node avg_slowdown_ratio="0.46562275018" id="node_06x14" type="right_before_left" weight_num="4.0" weight_sum="1.86249100072" x="600.00" y="1400.00" />
    <node avg_slowdown_ratio="0.463822894167" id="node_12x10" type="right_before_left" weight_num="4.0" weight_sum="1.85529157667" x="1200.00" y="1000.00" />
    <node avg_slowdown_ratio="0.46076313895" id="node_15x13" type="right_before_left" weight_num="3.0" weight_sum="1.38228941685" x="1500.00" y="1300.00" />
    <node avg_slowdown_ratio="0.45752339813" id="node_06x05" type="right_before_left" weight_num="4.0" weight_sum="1.83009359252" x="600.00" y="500.00" />
    <node avg_slowdown_ratio="0.443004559637" id="node_07x14" type="right_before_left" weight_num="3.0" weight_sum="1.32901367891" x="700.00" y="1400.00" />
    <node avg_slowdown_ratio="0.432325413968" id="node_11x12" type="right_before_left" weight_num="4.0" weight_sum="1.72930165587" x="1100.00" y="1200.00" />
    <node avg_slowdown_ratio="0.424946004318" id="node_07x09" type="right_before_left" weight_num="4.0" weight_sum="1.69978401727" x="700.00" y="900.00" />
    <node avg_slowdown_ratio="0.422846172307" id="node_12x15" type="right_before_left" weight_num="3.0" weight_sum="1.26853851692" x="1200.00" y="1500.00" />
    <node avg_slowdown_ratio="0.420986321095" id="node_12x08" type="right_before_left" weight_num="4.0" weight_sum="1.68394528438" x="1200.00" y="800.00" />
    <node avg_slowdown_ratio="0.41720662347" id="node_15x06" type="right_before_left" weight_num="4.0" weight_sum="1.66882649388" x="1500.00" y="600.00" />
    <node avg_slowdown_ratio="0.415046796258" id="node_11x05" type="right_before_left" weight_num="4.0" weight_sum="1.66018718503" x="1100.00" y="500.00" />
    <node avg_slowdown_ratio="0.41090712743" id="node_12x07" type="right_before_left" weight_num="4.0" weight_sum="1.64362850972" x="1200.00" y="700.00" />
    <node avg_slowdown_ratio="0.408027357812" id="node_06x09" type="right_before_left" weight_num="4.0" weight_sum="1.63210943125" x="600.00" y="900.00" />
    <node avg_slowdown_ratio="0.401967842573" id="node_09x08" type="right_before_left" weight_num="3.0" weight_sum="1.20590352772" x="900.00" y="800.00" />
    <node avg_slowdown_ratio="0.399748020157" id="node_04x09" type="right_before_left" weight_num="4.0" weight_sum="1.59899208063" x="400.00" y="900.00" />
    <node avg_slowdown_ratio="0.391468682505" id="node_04x10" type="right_before_left" weight_num="4.0" weight_sum="1.56587473002" x="400.00" y="1000.00" />
    <node avg_slowdown_ratio="0.388768898488" id="node_08x16" type="right_before_left" weight_num="4.0" weight_sum="1.55507559395" x="800.00" y="1600.00" />
    <node avg_slowdown_ratio="0.385649148067" id="node_11x09" type="right_before_left" weight_num="3.0" weight_sum="1.1569474442" x="1100.00" y="900.00" />
    <node avg_slowdown_ratio="0.374130069593" id="node_08x09" type="right_before_left" weight_num="3.0" weight_sum="1.12239020878" x="800.00" y="900.00" />
    <node avg_slowdown_ratio="0.371010319173" id="node_08x14" type="right_before_left" weight_num="3.0" weight_sum="1.11303095752" x="800.00" y="1400.00" />
    <node avg_slowdown_ratio="0.366090712742" id="node_06x12" type="right_before_left" weight_num="4.0" weight_sum="1.46436285097" x="600.00" y="1200.00" />
    <node avg_slowdown_ratio="0.358711303097" id="node_16x13" type="right_before_left" weight_num="4.0" weight_sum="1.43484521239" x="1600.00" y="1300.00" />
    <node avg_slowdown_ratio="0.358711303095" id="node_08x13" type="right_before_left" weight_num="4.0" weight_sum="1.43484521238" x="800.00" y="1300.00" />
    <node avg_slowdown_ratio="0.341072714183" id="node_17x09" type="right_before_left" weight_num="4.0" weight_sum="1.36429085673" x="1700.00" y="900.00" />
    <node avg_slowdown_ratio="0.338912886967" id="node_04x05" type="right_before_left" weight_num="4.0" weight_sum="1.35565154787" x="400.00" y="500.00" />
    <node avg_slowdown_ratio="0.333813294937" id="node_04x08" type="right_before_left" weight_num="3.0" weight_sum="1.00143988481" x="400.00" y="800.00" />
    <node avg_slowdown_ratio="0.332433405327" id="node_04x12" type="right_before_left" weight_num="4.0" weight_sum="1.32973362131" x="400.00" y="1200.00" />
    <node avg_slowdown_ratio="0.330453563715" id="node_06x10" type="right_before_left" weight_num="4.0" weight_sum="1.32181425486" x="600.00" y="1000.00" />
    <node avg_slowdown_ratio="0.32973362131" id="node_14x14" type="right_before_left" weight_num="3.0" weight_sum="0.98920086393" x="1400.00" y="1400.00" />
    <node avg_slowdown_ratio="0.32661387089" id="node_07x05" type="right_before_left" weight_num="3.0" weight_sum="0.97984161267" x="700.00" y="500.00" />
    <node avg_slowdown_ratio="0.326313894888" id="node_09x13" type="right_before_left" weight_num="4.0" weight_sum="1.30525557955" x="900.00" y="1300.00" />
    <node avg_slowdown_ratio="0.322534197265" id="node_17x13" type="right_before_left" weight_num="4.0" weight_sum="1.29013678906" x="1700.00" y="1300.00" />
    <node avg_slowdown_ratio="0.322174226063" id="node_15x10" type="right_before_left" weight_num="4.0" weight_sum="1.28869690425" x="1500.00" y="1000.00" />
    <node avg_slowdown_ratio="0.318394528437" id="node_11x04" type="right_before_left" weight_num="4.0" weight_sum="1.27357811375" x="1100.00" y="400.00" />
    <node avg_slowdown_ratio="0.318034557235" id="node_09x10" type="right_before_left" weight_num="4.0" weight_sum="1.27213822894" x="900.00" y="1000.00" />
    <node avg_slowdown_ratio="0.317674586032" id="node_09x12" type="right_before_left" weight_num="4.0" weight_sum="1.27069834413" x="900.00" y="1200.00" />
    <node avg_slowdown_ratio="0.316594672428" id="node_17x12" type="right_before_left" weight_num="4.0" weight_sum="1.26637868971" x="1700.00" y="1200.00" />
    <node avg_slowdown_ratio="0.316054715622" id="node_13x16" type="right_before_left" weight_num="4.0" weight_sum="1.26421886249" x="1300.00" y="1600.00" />
    <node avg_slowdown_ratio="0.314974802015" id="node_17x10" type="right_before_left" weight_num="4.0" weight_sum="1.25989920806" x="1700.00" y="1000.00" />
    <node avg_slowdown_ratio="0.314794816415" id="node_08x12" type="right_before_left" weight_num="4.0" weight_sum="1.25917926566" x="800.00" y="1200.00" />
    <node avg_slowdown_ratio="0.313354931605" id="node_17x05" type="right_before_left" weight_num="4.0" weight_sum="1.25341972642" x="1700.00" y="500.00" />
    <node avg_slowdown_ratio="0.3124550036" id="node_08x03" type="right_before_left" weight_num="3.0" weight_sum="0.937365010799" x="800.00" y="300.00" />
    <node avg_slowdown_ratio="0.312275018" id="node_06x13" type="right_before_left" weight_num="4.0" weight_sum="1.249100072" x="600.00" y="1300.00" />
    <node avg_slowdown_ratio="0.312215022798" id="node_13x06" type="right_before_left" weight_num="3.0" weight_sum="0.936645068395" x="1300.00" y="600.00" />
    <node avg_slowdown_ratio="0.311915046797" id="node_12x04" type="right_before_left" weight_num="4.0" weight_sum="1.24766018719" x="1200.00" y="400.00" />
    <node avg_slowdown_ratio="0.311735061195" id="node_08x15" type="right_before_left" weight_num="3.0" weight_sum="0.935205183586" x="800.00" y="1500.00" />
    <node avg_slowdown_ratio="0.311495080394" id="node_06x04" type="right_before_left" weight_num="3.0" weight_sum="0.934485241181" x="600.00" y="400.00" />
    <node avg_slowdown_ratio="0.31101511879" id="node_05x18" type="right_before_left" weight_num="4.0" weight_sum="1.24406047516" x="500.00" y="1800.00" />
    <node avg_slowdown_ratio="0.310535157187" id="node_10x13" type="right_before_left" weight_num="3.0" weight_sum="0.931605471562" x="1000.00" y="1300.00" />
    <node avg_slowdown_ratio="0.310115190785" id="node_03x12" type="right_before_left" weight_num="4.0" weight_sum="1.24046076314" x="300.00" y="1200.00" />
    <node avg_slowdown_ratio="0.309755219583" id="node_06x03" type="right_before_left" weight_num="4.0" weight_sum="1.23902087833" x="600.00" y="300.00" />
    <node avg_slowdown_ratio="0.306875449965" id="node_17x06" type="right_before_left" weight_num="4.0" weight_sum="1.22750179986" x="1700.00" y="600.00" />
    <node avg_slowdown_ratio="0.306695464363" id="node_04x06" type="right_before_left" weight_num="3.0" weight_sum="0.920086393089" x="400.00" y="600.00" />
    <node avg_slowdown_ratio="0.306515478763" id="node_05x15" type="right_before_left" weight_num="4.0" weight_sum="1.22606191505" x="500.00" y="1500.00" />
    <node avg_slowdown_ratio="0.30621550276" id="node_05x09" type="right_before_left" weight_num="3.0" weight_sum="0.918646508279" x="500.00" y="900.00" />
    <node avg_slowdown_ratio="0.305975521958" id="node_13x04" type="right_before_left" weight_num="3.0" weight_sum="0.917926565874" x="1300.00" y="400.00" />
    <node avg_slowdown_ratio="0.305615550755" id="node_04x14" type="right_before_left" weight_num="4.0" weight_sum="1.22246220302" x="400.00" y="1400.00" />
    <node avg_slowdown_ratio="0.305075593953" id="node_05x14" type="right_before_left" weight_num="4.0" weight_sum="1.22030237581" x="500.00" y="1400.00" />
    <node avg_slowdown_ratio="0.304055675546" id="node_00x13" type="right_before_left" weight_num="3.0" weight_sum="0.912167026638" x="0.00" y="1300.00" />
    <node avg_slowdown_ratio="0.303635709142" id="node_07x10" type="right_before_left" weight_num="4.0" weight_sum="1.21454283657" x="700.00" y="1000.00" />
    <node avg_slowdown_ratio="0.302915766737" id="node_14x02" type="right_before_left" weight_num="4.0" weight_sum="1.21166306695" x="1400.00" y="200.00" />
    <node avg_slowdown_ratio="0.302555795538" id="node_17x08" type="right_before_left" weight_num="4.0" weight_sum="1.21022318215" x="1700.00" y="800.00" />
    <node avg_slowdown_ratio="0.302015838732" id="node_14x11" type="right_before_left" weight_num="4.0" weight_sum="1.20806335493" x="1400.00" y="1100.00" />
    <node avg_slowdown_ratio="0.301835853132" id="node_11x08" type="right_before_left" weight_num="4.0" weight_sum="1.20734341253" x="1100.00" y="800.00" />
    <node avg_slowdown_ratio="0.300755939525" id="node_12x16" type="right_before_left" weight_num="4.0" weight_sum="1.2030237581" x="1200.00" y="1600.00" />
    <node avg_slowdown_ratio="0.29997600192" id="node_10x17" type="right_before_left" weight_num="3.0" weight_sum="0.899928005759" x="1000.00" y="1700.00" />
    <node avg_slowdown_ratio="0.2968562515" id="node_09x05" type="right_before_left" weight_num="3.0" weight_sum="0.890568754499" x="900.00" y="500.00" />
    <node avg_slowdown_ratio="0.296256299495" id="node_12x02" type="right_before_left" weight_num="4.0" weight_sum="1.18502519798" x="1200.00" y="200.00" />
    <node avg_slowdown_ratio="0.296076313895" id="node_04x11" type="right_before_left" weight_num="4.0" weight_sum="1.18430525558" x="400.00" y="1100.00" />
    <node avg_slowdown_ratio="0.296076313895" id="node_07x12" type="right_before_left" weight_num="4.0" weight_sum="1.18430525558" x="700.00" y="1200.00" />
    <node avg_slowdown_ratio="0.296076313895" id="node_17x07" type="right_before_left" weight_num="4.0" weight_sum="1.18430525558" x="1700.00" y="700.00" />
    <node avg_slowdown_ratio="0.295896328295" id="node_06x15" type="right_before_left" weight_num="4.0" weight_sum="1.18358531318" x="600.00" y="1500.00" />
    <node avg_slowdown_ratio="0.295896328294" id="node_00x14" type="right_before_left" weight_num="3.0" weight_sum="0.887688984882" x="0.00" y="1400.00" />
    <node avg_slowdown_ratio="0.295896328293" id="node_19x16" type="right_before_left" weight_num="2.0" weight_sum="0.591792656587" x="1900.00" y="1600.00" />
    <node avg_slowdown_ratio="0.29517638589" id="node_06x16" type="right_before_left" weight_num="2.0" weight_sum="0.590352771779" x="600.00" y="1600.00" />
    <node avg_slowdown_ratio="0.295176385889" id="node_11x03" type="right_before_left" weight_num="3.0" weight_sum="0.885529157667" x="1100.00" y="300.00" />
    <node avg_slowdown_ratio="0.294696424286" id="node_01x08" type="right_before_left" weight_num="3.0" weight_sum="0.884089272859" x="100.00" y="800.00" />
    <node avg_slowdown_ratio="0.29355651548" id="node_10x19" type="right_before_left" weight_num="4.0" weight_sum="1.17422606192" x="1000.00" y="1900.00" />
    <node avg_slowdown_ratio="0.292056635469" id="node_04x07" type="right_before_left" weight_num="3.0" weight_sum="0.876169906408" x="400.00" y="700.00" />
    <node avg_slowdown_ratio="0.291936645068" id="node_11x17" type="right_before_left" weight_num="4.0" weight_sum="1.16774658027" x="1100.00" y="1700.00" />
    <node avg_slowdown_ratio="0.291936645068" id="node_18x16" type="right_before_left" weight_num="4.0" weight_sum="1.16774658027" x="1800.00" y="1600.00" />
    <node avg_slowdown_ratio="0.291756659468" id="node_07x11" type="right_before_left" weight_num="4.0" weight_sum="1.16702663787" x="700.00" y="1100.00" />
    <node avg_slowdown_ratio="0.291576673865" id="node_07x03" type="right_before_left" weight_num="4.0" weight_sum="1.16630669546" x="700.00" y="300.00" />
    <node avg_slowdown_ratio="0.291396688265" id="node_09x15" type="right_before_left" weight_num="4.0" weight_sum="1.16558675306" x="900.00" y="1500.00" />
    <node avg_slowdown_ratio="0.290376769859" id="node_08x17" type="right_before_left" weight_num="3.0" weight_sum="0.871130309576" x="800.00" y="1700.00" />
    <node avg_slowdown_ratio="0.289596832252" id="node_16x06" type="right_before_left" weight_num="4.0" weight_sum="1.15838732901" x="1600.00" y="600.00" />
    <node avg_slowdown_ratio="0.288336933045" id="node_01x19" type="right_before_left" weight_num="4.0" weight_sum="1.15334773218" x="100.00" y="1900.00" />
    <node avg_slowdown_ratio="0.287976961842" id="node_15x08" type="right_before_left" weight_num="4.0" weight_sum="1.15190784737" x="1500.00" y="800.00" />
    <node avg_slowdown_ratio="0.287736981042" id="node_14x06" type="right_before_left" weight_num="3.0" weight_sum="0.863210943125" x="1400.00" y="600.00" />
    <node avg_slowdown_ratio="0.287077033837" id="node_11x14" type="right_before_left" weight_num="4.0" weight_sum="1.14830813535" x="1100.00" y="1400.00" />
    <node avg_slowdown_ratio="0.286177105833" id="node_04x15" type="right_before_left" weight_num="4.0" weight_sum="1.14470842333" x="400.00" y="1500.00" />
    <node avg_slowdown_ratio="0.286177105832" id="node_01x16" type="right_before_left" weight_num="2.0" weight_sum="0.572354211664" x="100.00" y="1600.00" />
    <node avg_slowdown_ratio="0.285637149027" id="node_15x16" type="right_before_left" weight_num="4.0" weight_sum="1.14254859611" x="1500.00" y="1600.00" />
    <node avg_slowdown_ratio="0.284737221022" id="node_02x08" type="right_before_left" weight_num="4.0" weight_sum="1.13894888409" x="200.00" y="800.00" />
    <node avg_slowdown_ratio="0.28437724982" id="node_00x17" type="right_before_left" weight_num="3.0" weight_sum="0.853131749461" x="0.00" y="1700.00" />
    <node avg_slowdown_ratio="0.28437724982" id="node_09x17" type="right_before_left" weight_num="4.0" weight_sum="1.13750899928" x="900.00" y="1700.00" />
    <node avg_slowdown_ratio="0.283417326614" id="node_08x04" type="right_before_left" weight_num="3.0" weight_sum="0.850251979842" x="800.00" y="400.00" />
    <node avg_slowdown_ratio="0.283117350612" id="node_03x11" type="right_before_left" weight_num="4.0" weight_sum="1.13246940245" x="300.00" y="1100.00" />
    <node avg_slowdown_ratio="0.28275737941" id="node_09x07" type="right_before_left" weight_num="4.0" weight_sum="1.13102951764" x="900.00" y="700.00" />
    <node avg_slowdown_ratio="0.282217422606" id="node_20x10" type="right_before_left" weight_num="2.0" weight_sum="0.564434845212" x="2000.00" y="1000.00" />
    <node avg_slowdown_ratio="0.282037437005" id="node_14x19" type="right_before_left" weight_num="4.0" weight_sum="1.12814974802" x="1400.00" y="1900.00" />
    <node avg_slowdown_ratio="0.281497480202" id="node_04x17" type="right_before_left" weight_num="4.0" weight_sum="1.12598992081" x="400.00" y="1700.00" />
    <node avg_slowdown_ratio="0.281137509" id="node_17x04" type="right_before_left" weight_num="4.0" weight_sum="1.124550036" x="1700.00" y="400.00" />
    <node avg_slowdown_ratio="0.280957523398" id="node_03x18" type="right_before_left" weight_num="4.0" weight_sum="1.12383009359" x="300.00" y="1800.00" />
    <node avg_slowdown_ratio="0.280777537797" id="node_13x12" type="right_before_left" weight_num="2.0" weight_sum="0.561555075594" x="1300.00" y="1200.00" />
    <node avg_slowdown_ratio="0.280057595393" id="node_09x16" type="right_before_left" weight_num="4.0" weight_sum="1.12023038157" x="900.00" y="1600.00" />
    <node avg_slowdown_ratio="0.280057595392" id="node_11x13" type="right_before_left" weight_num="3.0" weight_sum="0.840172786177" x="1100.00" y="1300.00" />
    <node avg_slowdown_ratio="0.27951763859" id="node_15x02" type="right_before_left" weight_num="4.0" weight_sum="1.11807055436" x="1500.00" y="200.00" />
    <node avg_slowdown_ratio="0.278977681785" id="node_04x04" type="right_before_left" weight_num="4.0" weight_sum="1.11591072714" x="400.00" y="400.00" />
    <node avg_slowdown_ratio="0.278617710583" id="node_17x14" type="right_before_left" weight_num="4.0" weight_sum="1.11447084233" x="1700.00" y="1400.00" />
    <node avg_slowdown_ratio="0.278617710583" id="node_20x08" type="right_before_left" weight_num="2.0" weight_sum="0.557235421166" x="2000.00" y="800.00" />
    <node avg_slowdown_ratio="0.278437724983" id="node_15x09" type="right_before_left" weight_num="4.0" weight_sum="1.11375089993" x="1500.00" y="900.00" />
    <node avg_slowdown_ratio="0.27807775378" id="node_06x08" type="right_before_left" weight_num="4.0" weight_sum="1.11231101512" x="600.00" y="800.00" />
    <node avg_slowdown_ratio="0.277177825774" id="node_09x11" type="right_before_left" weight_num="3.0" weight_sum="0.831533477322" x="900.00" y="1100.00" />
    <node avg_slowdown_ratio="0.276817854573" id="node_05x02" type="right_before_left" weight_num="4.0" weight_sum="1.10727141829" x="500.00" y="200.00" />
    <node avg_slowdown_ratio="0.276817854573" id="node_18x15" type="right_before_left" weight_num="4.0" weight_sum="1.10727141829" x="1800.00" y="1500.00" />
    <node avg_slowdown_ratio="0.276097912168" id="node_18x12" type="right_before_left" weight_num="4.0" weight_sum="1.10439164867" x="1800.00" y="1200.00" />
    <node avg_slowdown_ratio="0.275917926565" id="node_03x10" type="right_before_left" weight_num="4.0" weight_sum="1.10367170626" x="300.00" y="1000.00" />
    <node avg_slowdown_ratio="0.275737940965" id="node_13x10" type="right_before_left" weight_num="4.0" weight_sum="1.10295176386" x="1300.00" y="1000.00" />
    <node avg_slowdown_ratio="0.275557955362" id="node_06x02" type="right_before_left" weight_num="4.0" weight_sum="1.10223182145" x="600.00" y="200.00" />
    <node avg_slowdown_ratio="0.275557955362" id="node_14x10" type="right_before_left" weight_num="4.0" weight_sum="1.10223182145" x="1400.00" y="1000.00" />
    <node avg_slowdown_ratio="0.275497960163" id="node_07x13" type="right_before_left" weight_num="3.0" weight_sum="0.826493880489" x="700.00" y="1300.00" />
    <node avg_slowdown_ratio="0.275257979362" id="node_08x07" type="right_before_left" weight_num="3.0" weight_sum="0.825773938085" x="800.00" y="700.00" />
    <node avg_slowdown_ratio="0.275197984163" id="node_01x09" type="right_before_left" weight_num="4.0" weight_sum="1.10079193665" x="100.00" y="900.00" />
    <node avg_slowdown_ratio="0.274778017759" id="node_15x05" type="right_before_left" weight_num="3.0" weight_sum="0.824334053276" x="1500.00" y="500.00" />
    <node avg_slowdown_ratio="0.274658027358" id="node_10x15" type="right_before_left" weight_num="4.0" weight_sum="1.09863210943" x="1000.00" y="1500.00" />
    <node avg_slowdown_ratio="0.274298056155" id="node_10x10" type="right_before_left" weight_num="3.0" weight_sum="0.822894168466" x="1000.00" y="1000.00" />
    <node avg_slowdown_ratio="0.273938084952" id="node_03x06" type="right_before_left" weight_num="4.0" weight_sum="1.09575233981" x="300.00" y="600.00" />
    <node avg_slowdown_ratio="0.273938084952" id="node_15x07" type="right_before_left" weight_num="4.0" weight_sum="1.09575233981" x="1500.00" y="700.00" />
    <node avg_slowdown_ratio="0.273578113753" id="node_05x17" type="right_before_left" weight_num="4.0" weight_sum="1.09431245501" x="500.00" y="1700.00" />
    <node avg_slowdown_ratio="0.27357811375" id="node_12x18" type="right_before_left" weight_num="4.0" weight_sum="1.094312455" x="1200.00" y="1800.00" />
    <node avg_slowdown_ratio="0.272858171348" id="node_13x18" type="right_before_left" weight_num="4.0" weight_sum="1.09143268539" x="1300.00" y="1800.00" />
    <node avg_slowdown_ratio="0.272858171346" id="node_14x16" type="right_before_left" weight_num="3.0" weight_sum="0.818574514038" x="1400.00" y="1600.00" />
    <node avg_slowdown_ratio="0.272318214542" id="node_02x10" type="right_before_left" weight_num="4.0" weight_sum="1.08927285817" x="200.00" y="1000.00" />
    <node avg_slowdown_ratio="0.272138228943" id="node_11x16" type="right_before_left" weight_num="4.0" weight_sum="1.08855291577" x="1100.00" y="1600.00" />
    <node avg_slowdown_ratio="0.272138228942" id="node_10x08" type="right_before_left" weight_num="3.0" weight_sum="0.816414686825" x="1000.00" y="800.00" />
    <node avg_slowdown_ratio="0.272138228942" id="node_17x17" type="right_before_left" weight_num="3.0" weight_sum="0.816414686825" x="1700.00" y="1700.00" />
    <node avg_slowdown_ratio="0.272138228941" id="node_08x11" type="right_before_left" weight_num="3.0" weight_sum="0.816414686824" x="800.00" y="1100.00" />
    <node avg_slowdown_ratio="0.27195824334" id="node_18x19" type="right_before_left" weight_num="4.0" weight_sum="1.08783297336" x="1800.00" y="1900.00" />
    <node avg_slowdown_ratio="0.271778257739" id="node_08x20" type="right_before_left" weight_num="2.0" weight_sum="0.543556515479" x="800.00" y="2000.00" />
    <node avg_slowdown_ratio="0.271418286537" id="node_02x20" type="right_before_left" weight_num="2.0" weight_sum="0.542836573074" x="200.00" y="2000.00" />
    <node avg_slowdown_ratio="0.271058315335" id="node_02x11" type="right_before_left" weight_num="4.0" weight_sum="1.08423326134" x="200.00" y="1100.00" />
    <node avg_slowdown_ratio="0.271058315335" id="node_10x16" type="right_before_left" weight_num="4.0" weight_sum="1.08423326134" x="1000.00" y="1600.00" />
    <node avg_slowdown_ratio="0.271058315335" id="node_13x08" type="right_before_left" weight_num="4.0" weight_sum="1.08423326134" x="1300.00" y="800.00" />
    <node avg_slowdown_ratio="0.270458363331" id="node_11x07" type="right_before_left" weight_num="3.0" weight_sum="0.811375089992" x="1100.00" y="700.00" />
    <node avg_slowdown_ratio="0.270218382529" id="node_04x13" type="right_before_left" weight_num="3.0" weight_sum="0.810655147588" x="400.00" y="1300.00" />
    <node avg_slowdown_ratio="0.270218382529" id="node_16x07" type="right_before_left" weight_num="3.0" weight_sum="0.810655147588" x="1600.00" y="700.00" />
    <node avg_slowdown_ratio="0.27015838733" id="node_16x10" type="right_before_left" weight_num="4.0" weight_sum="1.08063354932" x="1600.00" y="1000.00" />
    <node avg_slowdown_ratio="0.27015838733" id="node_17x02" type="right_before_left" weight_num="4.0" weight_sum="1.08063354932" x="1700.00" y="200.00" />
    <node avg_slowdown_ratio="0.269618430525" id="node_00x18" type="right_before_left" weight_num="2.0" weight_sum="0.539236861051" x="0.00" y="1800.00" />
    <node avg_slowdown_ratio="0.269258459323" id="node_16x01" type="right_before_left" weight_num="3.0" weight_sum="0.807775377969" x="1600.00" y="100.00" />
    <node avg_slowdown_ratio="0.268898488123" id="node_15x04" type="right_before_left" weight_num="4.0" weight_sum="1.07559395249" x="1500.00" y="400.00" />
    <node avg_slowdown_ratio="0.26871850252" id="node_14x09" type="right_before_left" weight_num="4.0" weight_sum="1.07487401008" x="1400.00" y="900.00" />
    <node avg_slowdown_ratio="0.268538516918" id="node_08x02" type="right_before_left" weight_num="4.0" weight_sum="1.07415406767" x="800.00" y="200.00" />
    <node avg_slowdown_ratio="0.268058555315" id="node_19x01" type="right_before_left" weight_num="3.0" weight_sum="0.804175665946" x="1900.00" y="100.00" />
    <node avg_slowdown_ratio="0.267818574514" id="node_13x14" type="right_before_left" weight_num="3.0" weight_sum="0.803455723541" x="1300.00" y="1400.00" />
    <node avg_slowdown_ratio="0.267818574514" id="node_20x05" type="right_before_left" weight_num="2.0" weight_sum="0.535637149029" x="2000.00" y="500.00" />
    <node avg_slowdown_ratio="0.267638588912" id="node_03x14" type="right_before_left" weight_num="4.0" weight_sum="1.07055435565" x="300.00" y="1400.00" />
    <node avg_slowdown_ratio="0.267578593713" id="node_14x15" type="right_before_left" weight_num="3.0" weight_sum="0.802735781138" x="1400.00" y="1500.00" />
    <node avg_slowdown_ratio="0.26727861771" id="node_11x11" type="right_before_left" weight_num="4.0" weight_sum="1.06911447084" x="1100.00" y="1100.00" />
    <node avg_slowdown_ratio="0.266858651308" id="node_01x15" type="right_before_left" weight_num="3.0" weight_sum="0.800575953923" x="100.00" y="1500.00" />
    <node avg_slowdown_ratio="0.266618670506" id="node_07x19" type="right_before_left" weight_num="3.0" weight_sum="0.799856011519" x="700.00" y="1900.00" />
    <node avg_slowdown_ratio="0.266378689705" id="node_16x03" type="right_before_left" weight_num="4.0" weight_sum="1.06551475882" x="1600.00" y="300.00" />
    <node avg_slowdown_ratio="0.266378689705" id="node_17x03" type="right_before_left" weight_num="4.0" weight_sum="1.06551475882" x="1700.00" y="300.00" />
    <node avg_slowdown_ratio="0.266198704103" id="node_16x04" type="right_before_left" weight_num="4.0" weight_sum="1.06479481641" x="1600.00" y="400.00" />
    <node avg_slowdown_ratio="0.266018718503" id="node_07x15" type="right_before_left" weight_num="2.0" weight_sum="0.532037437006" x="700.00" y="1500.00" />
    <node avg_slowdown_ratio="0.266018718502" id="node_15x19" type="right_before_left" weight_num="4.0" weight_sum="1.06407487401" x="1500.00" y="1900.00" />
    <node avg_slowdown_ratio="0.265298776098" id="node_02x00" type="right_before_left" weight_num="2.0" weight_sum="0.530597552196" x="200.00" y="0.00" />
    <node avg_slowdown_ratio="0.265298776098" id="node_02x15" type="right_before_left" weight_num="4.0" weight_sum="1.06119510439" x="200.00" y="1500.00" />
    <node avg_slowdown_ratio="0.264698824094" id="node_17x11" type="right_before_left" weight_num="3.0" weight_sum="0.794096472282" x="1700.00" y="1100.00" />
    <node avg_slowdown_ratio="0.264398848093" id="node_07x07" type="right_before_left" weight_num="4.0" weight_sum="1.05759539237" x="700.00" y="700.00" />
    <node avg_slowdown_ratio="0.263858891289" id="node_01x12" type="right_before_left" weight_num="2.0" weight_sum="0.527717782578" x="100.00" y="1200.00" />
    <node avg_slowdown_ratio="0.263498920087" id="node_00x02" type="right_before_left" weight_num="3.0" weight_sum="0.79049676026" x="0.00" y="200.00" />
    <node avg_slowdown_ratio="0.263498920086" id="node_04x20" type="right_before_left" weight_num="3.0" weight_sum="0.790496760259" x="400.00" y="2000.00" />
    <node avg_slowdown_ratio="0.263498920086" id="node_16x00" type="right_before_left" weight_num="2.0" weight_sum="0.526997840173" x="1600.00" y="0.00" />
    <node avg_slowdown_ratio="0.263498920086" id="node_20x02" type="right_before_left" weight_num="2.0" weight_sum="0.526997840172" x="2000.00" y="200.00" />
    <node avg_slowdown_ratio="0.263258939285" id="node_05x11" type="right_before_left" weight_num="3.0" weight_sum="0.789776817854" x="500.00" y="1100.00" />