<?xml version='1.0' encoding='UTF-8'?>
<nodes xmlns:xsi="http://www.w3.org/2001/XMLSchema-instance" version="0.27" xsi:noNamespaceSchemaLocation="http://sumo.dlr.de/xsd/edges_file.xsd"><node avg_slowdown_ratio="0.996160307177" id="2751313823" junction="True" old_x="8150.99" old_y="5819.53" type="priority" weight_num="3.0" weight_sum="2.98848092153" x="7980.91294973" x_displacement_sum="-170.077050273" y="5715.9570834" y_displacement_sum="-103.572916605" />
    <node avg_slowdown_ratio="0.994480441567" id="261763340" junction="True" old_x="7441.37" old_y="6569.24" type="priority" weight_num="3.0" weight_sum="2.9834413247" x="7408.06847639" x_displacement_sum="-33.3015236079" y="6562.67037353" y_displacement_sum="-6.56962647151" />
    <node avg_slowdown_ratio="0.994301139773" fixed="True" id="cluster_cluster_261668689_261668912_cluster_261668691_261668913" junction="True" old_x="9007.19" old_y="9070.16" tl="gneJ284" type="traffic_light" weight_num="4.0" weight_sum="3.97720455909" x="9007.26923468" x_displacement_sum="0.0792346754352" y="9068.67293026" y_displacement_sum="-1.48706973792" />
    <node avg_slowdown_ratio="0.99400119976" fixed="True" id="811037812" old_x="8963.86" old_y="9025.85" type="priority" weight_num="1.0" weight_sum="0.99400119976" x="8959.6389135" x_displacement_sum="-4.22108649948" y="9038.06916833" y_displacement_sum="12.2191683314" />
    <node avg_slowdown_ratio="0.99370050396" fixed="True" id="263016163" junction="True" old_x="11827.89" old_y="4711.66" type="priority" weight_num="2.0" weight_sum="1.98740100792" x="11830.8016285" x_displacement_sum="2.91162845782" y="4711.93401045" y_displacement_sum="0.274010451034" />
    <node avg_slowdown_ratio="0.993520518359" fixed="True" id="263016110" old_x="11872.3" old_y="4818.64" type="priority" weight_num="1.0" weight_sum="0.993520518359" x="11871.4465171" x_displacement_sum="-0.853482857674" y="4838.63103022" y_displacement_sum="19.9910302214" />
    <node avg_slowdown_ratio="0.99256059515" id="261763330" junction="True" old_x="7423.51" old_y="6553.2" type="priority" weight_num="3.0" weight_sum="2.97768178545" x="7571.71384743" x_displacement_sum="148.203847434" y="6711.90918081" y_displacement_sum="158.709180806" />
    <node avg_slowdown_ratio="0.992201559688" fixed="True" id="262111806" old_x="9071.45" old_y="9012.23" type="priority" weight_num="1.0" weight_sum="0.992201559688" x="9071.03919096" x_displacement_sum="-0.410809036927" y="9014.45548739" y_displacement_sum="2.2254873902" />
    <node avg_slowdown_ratio="0.99208063355" fixed="True" id="263016162" junction="True" old_x="11744.26" old_y="4540.26" type="priority" weight_num="2.0" weight_sum="1.9841612671" x="11746.2456429" x_displacement_sum="1.98564290595" y="4541.46188557" y_displacement_sum="1.20188556949" />
    <node avg_slowdown_ratio="0.99064074874" fixed="True" id="263016247" junction="True" old_x="11641.91" old_y="4324.79" type="priority" weight_num="2.0" weight_sum="1.98128149748" x="11638.8093044" x_displacement_sum="-3.10069557442" y="4329.58024443" y_displacement_sum="4.79024443459" />
    <node avg_slowdown_ratio="0.990401919616" fixed="True" id="2927613057" old_x="8774.36" old_y="11645.26" type="priority" weight_num="1.0" weight_sum="0.990401919616" x="8789.63785625" x_displacement_sum="15.2778562501" y="11636.8255765" y_displacement_sum="-8.43442348193" />
    <node avg_slowdown_ratio="0.990401919616" fixed="True" id="3162585229" old_x="9244.23" old_y="11090.36" type="priority" weight_num="1.0" weight_sum="0.990401919616" x="9233.55468494" x_displacement_sum="-10.675315059" y="11064.3100021" y_displacement_sum="-26.0499979412" />
    <node avg_slowdown_ratio="0.99040076794" id="1788613992" junction="True" old_x="8063.15" old_y="9479.84" type="priority" weight_num="3.0" weight_sum="2.97120230382" x="8054.51461098" x_displacement_sum="-8.63538901791" y="9439.47152981" y_displacement_sum="-40.3684701937" />
    <node avg_slowdown_ratio="0.990099009901" fixed="True" id="1038949808" old_x="6976.99" old_y="7183.1" type="priority" weight_num="1.0" weight_sum="0.990099009901" x="7007.62293721" x_displacement_sum="30.6329372101" y="7096.9394419" y_displacement_sum="-86.1605580996" />
    <node avg_slowdown_ratio="0.9900990099" fixed="True" id="2861666272" junction="True" old_x="6984.3" old_y="7174.02" type="priority" weight_num="2.0" weight_sum="1.9801980198" x="6973.5045352" x_displacement_sum="-10.7954648031" y="7164.53599222" y_displacement_sum="-9.48400777669" />
    <node avg_slowdown_ratio="0.990009260105" fixed="True" id="261765377" junction="True" old_x="7012.6" old_y="7138.3" type="priority" weight_num="2.0" weight_sum="1.98001852021" x="7008.75092143" x_displacement_sum="-3.84907856806" y="7148.41874419" y_displacement_sum="10.1187441931" />
    <node avg_slowdown_ratio="0.989920806335" fixed="True" id="1788613985" old_x="8083.69" old_y="9423.96" type="priority" weight_num="1.0" weight_sum="0.989920806335" x="8089.08514485" x_displacement_sum="5.39514485313" y="9432.32006971" y_displacement_sum="8.36006971295" />
    <node avg_slowdown_ratio="0.989920806335" fixed="True" id="318346884#9-AddedOffRampNode" old_x="11833.96" old_y="4726.28" type="priority" weight_num="1.0" weight_sum="0.989920806335" x="11821.8470537" x_displacement_sum="-12.1129462881" y="4690.67456326" y_displacement_sum="-35.6054367399" />
    <node avg_slowdown_ratio="0.989560835135" fixed="True" id="263022604" junction="True" old_x="12001.84" old_y="5151.14" type="priority" weight_num="2.0" weight_sum="1.97912167027" x="11992.9470478" x_displacement_sum="-8.89295221573" y="5154.66563449" y_displacement_sum="3.52563448955" />
    <node avg_slowdown_ratio="0.989560835133" fixed="True" id="263017729" old_x="11900.89" old_y="4926.41" type="priority" weight_num="1.0" weight_sum="0.989560835133" x="11916.5409499" x_displacement_sum="15.6509498671" y="4921.27417069" y_displacement_sum="-5.1358293138" />
    <node avg_slowdown_ratio="0.989202159568" fixed="True" id="3791348659" old_x="9229.96" old_y="11995.14" type="priority" weight_num="1.0" weight_sum="0.989202159568" x="9226.78105808" x_displacement_sum="-3.17894192062" y="11984.3961908" y_displacement_sum="-10.7438092094" />
    <node avg_slowdown_ratio="0.988660907125" fixed="True" id="263022694" junction="True" old_x="11213.65" old_y="5578.7" type="priority" weight_num="2.0" weight_sum="1.97732181425" x="11205.9155493" x_displacement_sum="-7.73445066228" y="5587.86021322" y_displacement_sum="9.16021321768" />
    <node avg_slowdown_ratio="0.988602279544" fixed="True" id="300217922" old_x="9040.54" old_y="9109.36" type="priority" weight_num="1.0" weight_sum="0.988602279544" x="9043.81582252" x_displacement_sum="3.27582251553" y="9104.5131583" y_displacement_sum="-4.84684170111" />
    <node avg_slowdown_ratio="0.98800239952" fixed="True" id="1065139769" old_x="6305.31" old_y="9172.54" type="priority" weight_num="1.0" weight_sum="0.98800239952" x="6305.96918199" x_displacement_sum="0.659181986235" y="9195.1180085" y_displacement_sum="22.5780084981" />
    <node avg_slowdown_ratio="0.98800239952" fixed="True" id="3926859711" old_x="9353.63" old_y="11175.86" type="priority" weight_num="1.0" weight_sum="0.98800239952" x="9334.52949964" x_displacement_sum="-19.1005003632" y="11178.7704309" y_displacement_sum="2.9104308936" />
    <node avg_slowdown_ratio="0.987985029605" fixed="True" id="2861666265" junction="True" old_x="7009.66" old_y="7171.52" type="priority" weight_num="2.0" weight_sum="1.97597005921" x="6991.08047907" x_displacement_sum="-18.5795209313" y="7163.56114239" y_displacement_sum="-7.95885761222" />
    <node avg_slowdown_ratio="0.987402519496" fixed="True" id="418671520#2-AddedOnRampNode" old_x="9156.84" old_y="9162.67" type="zipper" weight_num="1.0" weight_sum="0.987402519496" x="9162.31816025" x_displacement_sum="5.47816024525" y="9160.26615661" y_displacement_sum="-2.40384339012" />
    <node avg_slowdown_ratio="0.987041036717" fixed="True" id="1320235607" old_x="12167.49" old_y="5498.38" type="priority" weight_num="1.0" weight_sum="0.987041036717" x="12173.4928376" x_displacement_sum="6.00283758848" y="5475.41017454" y_displacement_sum="-22.9698254556" />
    <node avg_slowdown_ratio="0.986802639472" fixed="True" id="1807172979" old_x="8956.84" old_y="9102.93" type="priority" weight_num="1.0" weight_sum="0.986802639472" x="8958.3371612" x_displacement_sum="1.49716119954" y="9102.56895203" y_displacement_sum="-0.361047973441" />
    <node avg_slowdown_ratio="0.986802099625" fixed="True" id="262111055" junction="True" old_x="8864.46" old_y="8948.75" type="priority" weight_num="2.0" weight_sum="1.97360419925" x="8865.43049009" x_displacement_sum="0.970490093161" y="8948.38098268" y_displacement_sum="-0.369017321394" />
    <node avg_slowdown_ratio="0.986801055917" id="2928747055" junction="True" old_x="8985.09" old_y="11889.17" type="priority" weight_num="3.0" weight_sum="2.96040316775" x="8969.37097896" x_displacement_sum="-15.7190210365" y="11852.6451495" y_displacement_sum="-36.5248505418" />
    <node avg_slowdown_ratio="0.98674239234" fixed="True" id="4173759211" junction="True" old_x="8863.36" old_y="11522.47" type="priority" weight_num="2.0" weight_sum="1.97348478468" x="8843.79625271" x_displacement_sum="-19.5637472871" y="11521.442509" y_displacement_sum="-1.02749100186" />
    <node avg_slowdown_ratio="0.986401783717" fixed="True" id="cluster_288734549_288734550" junction="True" old_x="9210.64" old_y="11054.67" type="priority" weight_num="3.0" weight_sum="2.95920535115" x="9240.4677939" x_displacement_sum="29.827793904" y="11079.437129" y_displacement_sum="24.767129038" />
    <node avg_slowdown_ratio="0.986202759448" fixed="True" id="24206855#4-AddedOffRampNode" old_x="9109.59" old_y="8969.27" type="priority" weight_num="1.0" weight_sum="0.986202759448" x="9111.43819121" x_displacement_sum="1.84819121406" y="8971.33849465" y_displacement_sum="2.06849464911" />
    <node avg_slowdown_ratio="0.985902819435" fixed="True" id="288734552" junction="True" old_x="9218.91" old_y="11073.68" type="priority" weight_num="2.0" weight_sum="1.97180563887" x="9221.94912851" x_displacement_sum="3.03912850668" y="11037.3942702" y_displacement_sum="-36.2857297919" />
    <node avg_slowdown_ratio="0.985721862105" fixed="True" id="cluster_1636588566_3926859712_3926859713" junction="True" old_x="9377.61" old_y="11201.27" type="priority" weight_num="2.0" weight_sum="1.97144372421" x="9379.97888327" x_displacement_sum="2.36888327415" y="11200.2371584" y_displacement_sum="-1.03284155107" />
    <node avg_slowdown_ratio="0.985602879424" fixed="True" id="4173759212" old_x="8844.02" old_y="11548.63" type="priority" weight_num="1.0" weight_sum="0.985602879424" x="8841.33559389" x_displacement_sum="-2.68440611447" y="11534.5218962" y_displacement_sum="-14.1081037596" />
    <node avg_slowdown_ratio="0.985602879424" fixed="True" id="434371436#6-AddedOnRampNode" old_x="8944.46" old_y="9010.43" type="priority" weight_num="1.0" weight_sum="0.985602879424" x="8944.66444861" x_displacement_sum="0.204448612159" y="9015.46975502" y_displacement_sum="5.03975502307" />
    <node avg_slowdown_ratio="0.98560152956" fixed="True" id="2927613060" junction="True" old_x="8820.88" old_y="11579.91" type="priority" weight_num="2.0" weight_sum="1.97120305912" x="8819.81495006" x_displacement_sum="-1.06504994227" y="11583.1525301" y_displacement_sum="3.24253012711" />
    <node avg_slowdown_ratio="0.9850029994" fixed="True" id="232754823#13-AddedOffRampNode" old_x="9322.85" old_y="11152.16" type="priority" weight_num="1.0" weight_sum="0.9850029994" x="9330.57217691" x_displacement_sum="7.72217690922" y="11164.9019366" y_displacement_sum="12.7419365938" />
    <node avg_slowdown_ratio="0.98487894146" fixed="True" id="261765414" junction="True" old_x="7348.15" old_y="6744.83" type="priority" weight_num="2.0" weight_sum="1.96975788292" x="7343.70052625" x_displacement_sum="-4.44947375217" y="6731.07254383" y_displacement_sum="-13.7574561725" />
    <node avg_slowdown_ratio="0.98483406656" fixed="True" id="261765317" junction="True" old_x="7397.94" old_y="6686.41" type="priority" weight_num="2.0" weight_sum="1.96966813312" x="7360.70317545" x_displacement_sum="-37.2368245514" y="6665.2827158" y_displacement_sum="-21.1272841972" />
    <node avg_slowdown_ratio="0.98476244276" fixed="True" id="cluster_2927613047_2927613048_2927613049" junction="True" old_x="8857.39" old_y="11678.88" type="priority" weight_num="2.0" weight_sum="1.96952488552" x="8852.52383751" x_displacement_sum="-4.86616249045" y="11676.7582242" y_displacement_sum="-2.12177584902" />
    <node avg_slowdown_ratio="0.98476201088" fixed="True" id="cluster_2928746276_2928746277_2928746278_3791348652" junction="True" old_x="9103.21" old_y="11860.45" type="priority" weight_num="3.0" weight_sum="2.95428603264" x="9106.04214457" x_displacement_sum="2.83214457498" y="11861.6989929" y_displacement_sum="1.24899292923" />
    <node avg_slowdown_ratio="0.9845212383" fixed="True" id="263016243" junction="True" old_x="11571.39" old_y="4171.63" type="priority" weight_num="2.0" weight_sum="1.9690424766" x="11571.702506" x_displacement_sum="0.312506017058" y="4173.40034663" y_displacement_sum="1.77034663289" />
    <node avg_slowdown_ratio="0.984477226965" fixed="True" id="3791348663" junction="True" old_x="9216.42" old_y="11939.18" type="priority" weight_num="2.0" weight_sum="1.96895445393" x="9207.9459001" x_displacement_sum="-8.47409989785" y="11932.7046327" y_displacement_sum="-6.47536726089" />
    <node avg_slowdown_ratio="0.984102747485" fixed="True" id="cluster_2928746235_2928747257_2928747258" junction="True" old_x="8952.34" old_y="11750.43" type="priority" weight_num="2.0" weight_sum="1.96820549497" x="8947.1083737" x_displacement_sum="-5.23162630185" y="11748.3803829" y_displacement_sum="-2.04961708165" />
    <node avg_slowdown_ratio="0.983981281495" fixed="True" id="1845027350" junction="True" old_x="10026.1" old_y="9959.74" type="priority" weight_num="2.0" weight_sum="1.96796256299" x="9996.31168616" x_displacement_sum="-29.7883138354" y="9958.76101025" y_displacement_sum="-0.978989748581" />
    <node avg_slowdown_ratio="0.98366407915" fixed="True" id="1320235955" junction="True" old_x="12111.89" old_y="5385.79" tl="GS_1320235955" type="traffic_light" weight_num="2.0" weight_sum="1.9673281583" x="12074.2913523" x_displacement_sum="-37.5986476581" y="5306.96619221" y_displacement_sum="-78.8238077926" />
    <node avg_slowdown_ratio="0.983425952075" fixed="True" id="261662745" junction="True" old_x="9075.59" old_y="9105.28" type="priority" weight_num="2.0" weight_sum="1.96685190415" x="9074.15238492" x_displacement_sum="-1.4376150824" y="9102.62876034" y_displacement_sum="-2.65123966296" />
    <node avg_slowdown_ratio="0.983394343755" fixed="True" id="263022653" junction="True" old_x="11145.1" old_y="5550.27" type="priority" weight_num="2.0" weight_sum="1.96678868751" x="11149.0135384" x_displacement_sum="3.91353838886" y="5553.38820619" y_displacement_sum="3.11820619492" />
    <node avg_slowdown_ratio="0.983203359328" fixed="True" id="811037786" old_x="9135.97" old_y="8929.8" type="priority" weight_num="1.0" weight_sum="0.983203359328" x="9135.53424263" x_displacement_sum="-0.435757373778" y="8931.66084141" y_displacement_sum="1.86084140665" />
    <node avg_slowdown_ratio="0.983081353492" fixed="True" id="gneJ316" old_x="9382.24" old_y="12059.73" type="priority" weight_num="1.0" weight_sum="0.983081353492" x="9388.21735547" x_displacement_sum="5.97735547097" y="12043.0079037" y_displacement_sum="-16.7220963215" />
    <node avg_slowdown_ratio="0.98296136309" id="263016232" junction="True" old_x="11962.26" old_y="4649.22" type="priority" weight_num="3.0" weight_sum="2.94888408927" x="11891.3636292" x_displacement_sum="-70.8963707782" y="4707.85322949" y_displacement_sum="58.6332294871" />
    <node avg_slowdown_ratio="0.982603479304" fixed="True" id="2928746242" old_x="8730.84" old_y="12011.52" type="priority" weight_num="1.0" weight_sum="0.982603479304" x="8759.97067056" x_displacement_sum="29.1306705629" y="12023.3002992" y_displacement_sum="11.7802992495" />
    <node avg_slowdown_ratio="0.982044370745" fixed="True" id="261765374" junction="True" old_x="7164.11" old_y="6963.17" type="priority" weight_num="2.0" weight_sum="1.96408874149" x="7165.42374133" x_displacement_sum="1.31374132586" y="6929.87654192" y_displacement_sum="-33.293458076" />
    <node avg_slowdown_ratio="0.98200359928" fixed="True" id="1845019564" old_x="9177.02" old_y="9178.15" type="priority" weight_num="1.0" weight_sum="0.98200359928" x="9193.28594816" x_displacement_sum="16.2659481553" y="9171.1120082" y_displacement_sum="-7.03799179794" />
    <node avg_slowdown_ratio="0.98200359928" fixed="True" id="2927613053" old_x="8845.72" old_y="11602.77" type="priority" weight_num="1.0" weight_sum="0.98200359928" x="8832.97757709" x_displacement_sum="-12.7424229061" y="11603.2463002" y_displacement_sum="0.476300212895" />
    <node avg_slowdown_ratio="0.98200359928" fixed="True" id="3162585222" old_x="9181.28" old_y="11022.99" type="priority" weight_num="1.0" weight_sum="0.98200359928" x="9189.18200194" x_displacement_sum="7.90200194112" y="11042.6013038" y_displacement_sum="19.6113038426" />
    <node avg_slowdown_ratio="0.98200359928" fixed="True" id="3510035110" old_x="8964.93" old_y="11383.58" type="priority" weight_num="1.0" weight_sum="0.98200359928" x="8970.02813899" x_displacement_sum="5.09813899213" y="11377.1076401" y_displacement_sum="-6.47235985662" />
    <node avg_slowdown_ratio="0.98200359928" fixed="True" id="4280981646" old_x="8922.33" old_y="11441.94" type="priority" weight_num="1.0" weight_sum="0.98200359928" x="8919.62068158" x_displacement_sum="-2.70931842495" y="11440.2808422" y_displacement_sum="-1.65915778602" />
    <node avg_slowdown_ratio="0.981641468685" fixed="True" id="261702938" junction="True" old_x="5933.69" old_y="7522.52" type="priority" weight_num="2.0" weight_sum="1.96328293737" x="6047.14442313" x_displacement_sum="113.454423128" y="7678.37084427" y_displacement_sum="155.850844268" />
    <node avg_slowdown_ratio="0.981601807787" fixed="True" id="cluster_1636594565_3926859714" junction="True" old_x="9334.72" old_y="11173.81" type="priority" weight_num="3.0" weight_sum="2.94480542336" x="9338.09336456" x_displacement_sum="3.37336455518" y="11175.8355917" y_displacement_sum="2.02559171788" />
    <node avg_slowdown_ratio="0.98146310263" fixed="True" id="261988252" junction="True" old_x="8410.62" old_y="8590.31" type="priority" weight_num="2.0" weight_sum="1.96292620526" x="8423.59257274" x_displacement_sum="12.9725727443" y="8578.31632402" y_displacement_sum="-11.9936759784" />
    <node avg_slowdown_ratio="0.981403719256" fixed="True" id="1065139585" old_x="6367.27" old_y="9243.87" type="priority" weight_num="1.0" weight_sum="0.981403719256" x="6355.65369916" x_displacement_sum="-11.6163008397" y="9222.14587249" y_displacement_sum="-21.7241275058" />
    <node avg_slowdown_ratio="0.981403719256" fixed="True" id="26244311#12-AddedOffRampNode" old_x="9099.52" old_y="10965.41" type="priority" weight_num="1.0" weight_sum="0.981403719256" x="9088.81575099" x_displacement_sum="-10.7042490075" y="10974.725423" y_displacement_sum="9.3154230112" />
    <node avg_slowdown_ratio="0.981403719256" fixed="True" id="2927613055" old_x="8837.21" old_y="11659.89" type="priority" weight_num="1.0" weight_sum="0.981403719256" x="8841.30106123" x_displacement_sum="4.09106123181" y="11649.4910233" y_displacement_sum="-10.3989767465" />
    <node avg_slowdown_ratio="0.98114460474" fixed="True" id="261765334" junction="True" old_x="7181.93" old_y="6942.21" type="priority" weight_num="2.0" weight_sum="1.96228920948" x="7148.47718596" x_displacement_sum="-33.4528140358" y="6946.66610387" y_displacement_sum="4.45610387371" />
    <node avg_slowdown_ratio="0.981098433815" fixed="True" id="261765443" junction="True" old_x="7654.49" old_y="6376.11" type="priority" weight_num="2.0" weight_sum="1.96219686763" x="7640.90335065" x_displacement_sum="-13.5866493533" y="6375.82648879" y_displacement_sum="-0.283511209579" />
    <node avg_slowdown_ratio="0.981098109811" fixed="True" id="2861666266" old_x="7007.02" old_y="7144.9" type="priority" weight_num="1.0" weight_sum="0.981098109811" x="7086.21693208" x_displacement_sum="79.1969320819" y="7063.67768992" y_displacement_sum="-81.2223100792" />
    <node avg_slowdown_ratio="0.98109810981" fixed="True" id="1362835771" junction="True" old_x="7512.84" old_y="6549.88" type="priority" weight_num="2.0" weight_sum="1.96219621962" x="7509.43140182" x_displacement_sum="-3.40859817868" y="6548.18826467" y_displacement_sum="-1.69173533298" />
    <node avg_slowdown_ratio="0.980921526278" fixed="True" id="3162585233" old_x="9067.86" old_y="11248.42" type="priority" weight_num="1.0" weight_sum="0.980921526278" x="9065.16138206" x_displacement_sum="-2.69861794481" y="11227.2547563" y_displacement_sum="-21.1652436933" />
    <node avg_slowdown_ratio="0.980921526278" fixed="True" id="gneJ69" old_x="11668.35" old_y="11115.08" type="priority" weight_num="1.0" weight_sum="0.980921526278" x="11658.3752912" x_displacement_sum="-9.97470883687" y="11112.4306254" y_displacement_sum="-2.64937457817" />
    <node avg_slowdown_ratio="0.980803839232" fixed="True" id="26244311#12-AddedOnRampNode" old_x="9091.57" old_y="10959.81" type="priority" weight_num="1.0" weight_sum="0.980803839232" x="9080.75239372" x_displacement_sum="-10.8176062764" y="10968.1951537" y_displacement_sum="8.38515370967" />
    <node avg_slowdown_ratio="0.98080383923" fixed="True" id="2361777076" junction="True" old_x="9230.65" old_y="11057.28" type="priority" weight_num="2.0" weight_sum="1.96160767846" x="9194.51543336" x_displacement_sum="-36.1345666447" y="11075.7014891" y_displacement_sum="18.4214891271" />
    <node avg_slowdown_ratio="0.980648388815" fixed="True" id="261763329" junction="True" old_x="7461.32" old_y="6587.94" type="priority" weight_num="2.0" weight_sum="1.96129677763" x="7448.79005653" x_displacement_sum="-12.5299434696" y="6577.0398894" y_displacement_sum="-10.9001105976" />
    <node avg_slowdown_ratio="0.98026312664" fixed="True" id="2510805192" junction="True" old_x="8620.3" old_y="8789.78" type="priority" weight_num="2.0" weight_sum="1.96052625328" x="8619.51533055" x_displacement_sum="-0.784669447244" y="8811.25989498" y_displacement_sum="21.4798949811" />
    <node avg_slowdown_ratio="0.980203959208" fixed="True" id="1052165987" old_x="9224.68" old_y="7935.87" type="priority" weight_num="1.0" weight_sum="0.980203959208" x="9231.67665082" x_displacement_sum="6.99665082439" y="7950.42965172" y_displacement_sum="14.5596517201" />
    <node avg_slowdown_ratio="0.980201583873" fixed="True" id="1268402934" old_x="5985.49" old_y="7605.37" type="priority" weight_num="1.0" weight_sum="0.980201583873" x="5980.65264841" x_displacement_sum="-4.83735158766" y="7610.8320875" y_displacement_sum="5.46208750003" />
    <node avg_slowdown_ratio="0.980198019802" fixed="True" id="262185724" old_x="8693.25" old_y="11940.77" type="priority" weight_num="1.0" weight_sum="0.980198019802" x="8696.2455378" x_displacement_sum="2.9955377997" y="11933.238431" y_displacement_sum="-7.53156895239" />
    <node avg_slowdown_ratio="0.980198019802" fixed="True" id="434375951#4-AddedOnRampNode" old_x="11299.49" old_y="5367.84" type="priority" weight_num="1.0" weight_sum="0.980198019802" x="11300.1663427" x_displacement_sum="0.676342717545" y="5369.75460771" y_displacement_sum="1.9146077111" />
    <node avg_slowdown_ratio="0.980021598273" id="2928746240" junction="True" old_x="8829.65" old_y="11912.69" type="priority" weight_num="4.0" weight_sum="3.92008639309" x="8820.91401571" x_displacement_sum="-8.73598428835" y="11908.8186677" y_displacement_sum="-3.87133225006" />
    <node avg_slowdown_ratio="0.979841612671" id="1836783794" old_x="6265.14" old_y="9114.05" type="priority" weight_num="1.0" weight_sum="0.979841612671" x="6329.17566359" x_displacement_sum="64.0356635889" y="9182.87378575" y_displacement_sum="68.8237857466" />
    <node avg_slowdown_ratio="0.97984161267" id="1882098843" junction="True" old_x="8822.35" old_y="11454.27" type="priority" weight_num="3.0" weight_sum="2.93952483801" x="8795.99672085" x_displacement_sum="-26.353279151" y="11496.5872508" y_displacement_sum="42.3172507633" />
    <node avg_slowdown_ratio="0.979604079184" fixed="True" id="3976263548" old_x="14348.59" old_y="3914.64" type="priority" weight_num="1.0" weight_sum="0.979604079184" x="14340.9146388" x_displacement_sum="-7.67536115422" y="3925.73813839" y_displacement_sum="11.0981383853" />
    <node avg_slowdown_ratio="0.979604079183" fixed="True" id="cluster_2569477378_289361580" junction="True" old_x="9257.48" old_y="11957.83" tl="cluster_2569477378_289361580" type="traffic_light" weight_num="3.0" weight_sum="2.93881223755" x="9248.97601712" x_displacement_sum="-8.50398288088" y="11950.4157096" y_displacement_sum="-7.41429037131" />
    <node avg_slowdown_ratio="0.979573631708" fixed="True" id="cluster_1791243436_1791243443_942404746_942404760" junction="True" old_x="11632.65" old_y="11113.21" tl="cluster_1791243436_1791243443_942404746_942404760" type="traffic_light" weight_num="4.0" weight_sum="3.91829452683" x="11629.9379073" x_displacement_sum="-2.712092713" y="11119.5598022" y_displacement_sum="6.34980222665" />
    <node avg_slowdown_ratio="0.979481641469" fixed="True" id="3162585225" old_x="9187.35" old_y="11086.58" type="priority" weight_num="1.0" weight_sum="0.979481641469" x="9211.96529248" x_displacement_sum="24.6152924818" y="11080.5334628" y_displacement_sum="-6.04653719112" />
    <node avg_slowdown_ratio="0.979481641469" fixed="True" id="4026572320" old_x="5247.66" old_y="7369.46" type="priority" weight_num="1.0" weight_sum="0.979481641469" x="5258.45385458" x_displacement_sum="10.7938545772" y="7354.36707764" y_displacement_sum="-15.0929223579" />
    <node avg_slowdown_ratio="0.97900419916" fixed="True" id="3791348649" old_x="9198.23" old_y="11924.87" type="priority" weight_num="1.0" weight_sum="0.97900419916" x="9184.46349312" x_displacement_sum="-13.7665068751" y="11933.8917249" y_displacement_sum="9.02172485595" />
    <node avg_slowdown_ratio="0.9788485328" fixed="True" id="263017588" junction="True" old_x="10452.08" old_y="5579.61" type="priority" weight_num="2.0" weight_sum="1.9576970656" x="10458.229238" x_displacement_sum="6.14923795405" y="5573.86095528" y_displacement_sum="-5.74904472006" />
    <node avg_slowdown_ratio="0.978847884788" fixed="True" id="1362835716" old_x="7568.85" old_y="6479.42" type="priority" weight_num="1.0" weight_sum="0.978847884788" x="7524.49235795" x_displacement_sum="-44.3576420489" y="6453.83780591" y_displacement_sum="-25.5821940926" />
    <node avg_slowdown_ratio="0.978847884788" fixed="True" id="318274914#20-AddedOnRampNode" old_x="7448.45" old_y="6626.39" type="priority" weight_num="1.0" weight_sum="0.978847884788" x="7444.74032634" x_displacement_sum="-3.70967365574" y="6619.15367531" y_displacement_sum="-7.23632468656" />
    <node avg_slowdown_ratio="0.978847884788" fixed="True" id="434375951#4-AddedOffRampNode" old_x="11254.4" old_y="5421.87" type="priority" weight_num="1.0" weight_sum="0.978847884788" x="11254.9236907" x_displacement_sum="0.523690650097" y="5416.57100534" y_displacement_sum="-5.29899465671" />
    <node avg_slowdown_ratio="0.97858333301" fixed="True" id="261665492" junction="True" old_x="9952.06" old_y="6953.45" type="priority" weight_num="2.0" weight_sum="1.95716666602" x="9949.91422802" x_displacement_sum="-2.14577197787" y="6958.84025208" y_displacement_sum="5.39025208294" />
    <node avg_slowdown_ratio="0.978581713465" fixed="True" id="2569477318" junction="True" old_x="9619.69" old_y="12258.79" type="priority" weight_num="2.0" weight_sum="1.95716342693" x="9621.72823645" x_displacement_sum="2.03823644735" y="12258.7631977" y_displacement_sum="-0.0268022753545" />
    <node avg_slowdown_ratio="0.97847518705" fixed="True" id="2089502246" junction="True" old_x="9011.61" old_y="10899.77" type="priority" weight_num="2.0" weight_sum="1.9569503741" x="9002.92873873" x_displacement_sum="-8.68126126579" y="10900.72938" y_displacement_sum="0.959380027125" />
    <node avg_slowdown_ratio="0.978397839784" fixed="True" id="263022640" old_x="11190.33" old_y="5498.64" type="priority" weight_num="1.0" weight_sum="0.978397839784" x="11190.9639541" x_displacement_sum="0.633954131134" y="5503.33122661" y_displacement_sum="4.69122660825" />
    <node avg_slowdown_ratio="0.978397839784" fixed="True" id="434375951#6-AddedOnRampNode" old_x="11080.43" old_y="5626.54" type="priority" weight_num="1.0" weight_sum="0.978397839784" x="11079.3847106" x_displacement_sum="-1.04528940912" y="5627.85912689" y_displacement_sum="1.31912688537" />
    <node avg_slowdown_ratio="0.978221742263" id="2928747035" junction="True" old_x="8897.74" old_y="11822.45" type="priority" weight_num="4.0" weight_sum="3.91288696905" x="8938.50073981" x_displacement_sum="40.7607398065" y="11777.4259466" y_displacement_sum="-45.0240533842" />
    <node avg_slowdown_ratio="0.978101139445" fixed="True" id="cluster_261671927_261671928_261671933_261671934" junction="True" old_x="7539.2" old_y="6505.64" tl="cluster_261671927_261671928_261671933_261671934" type="traffic_light" weight_num="4.0" weight_sum="3.91240455778" x="7537.48976477" x_displacement_sum="-1.7102352323" y="6505.50381285" y_displacement_sum="-0.136187148262" />
    <node avg_slowdown_ratio="0.977947794779" fixed="True" id="2325763453" old_x="14420.79" old_y="3965.66" type="priority" weight_num="1.0" weight_sum="0.977947794779" x="14408.3058299" x_displacement_sum="-12.4841701076" y="3962.43151365" y_displacement_sum="-3.228486354" />