<?xml version='1.0' encoding='UTF-8'?>
<nodes xmlns:xsi="http://www.w3.org/2001/XMLSchema-instance" version="0.27" xsi:noNamespaceSchemaLocation="http://sumo.dlr.de/xsd/edges_file.xsd"><node avg_slowdown_ratio="0.996160307177" id="2751313823" junction="True" old_x="8150.99" old_y="5819.53" type="priority" weight_num="3.0" weight_sum="2.98848092153" x="72734.0273936" x_displacement_sum="64583.0373936" y="-23854748.9482" y_displacement_sum="-23860568.4782" />
    <node avg_slowdown_ratio="0.994480441567" id="261763340" junction="True" old_x="7441.37" old_y="6569.24" type="priority" weight_num="3.0" weight_sum="2.9834413247" x="-12256653.488" x_displacement_sum="-12264094.858" y="-26852372.8379" y_displacement_sum="-26858942.0779" />
    <node avg_slowdown_ratio="0.994301139773" fixed="True" id="cluster_cluster_261668689_261668912_cluster_261668691_261668913" junction="True" old_x="9007.19" old_y="9070.16" tl="gneJ284" type="traffic_light" weight_num="4.0" weight_sum="3.97720455909" x="785510.723699" x_displacement_sum="776503.533699" y="529840.449198" y_displacement_sum="520770.289198" />
    <node avg_slowdown_ratio="0.99400119976" fixed="True" id="811037812" old_x="8963.86" old_y="9025.85" type="priority" weight_num="1.0" weight_sum="0.99400119976" x="727304.39397" x_displacement_sum="718340.53397" y="27580.7516573" y_displacement_sum="18554.9016573" />
    <node avg_slowdown_ratio="0.99370050396" fixed="True" id="263016163" junction="True" old_x="11827.89" old_y="4711.66" type="priority" weight_num="2.0" weight_sum="1.98740100792" x="128762.609196" x_displacement_sum="116934.719196" y="-2146274.15225" y_displacement_sum="-2150985.81225" />
    <node avg_slowdown_ratio="0.993520518359" fixed="True" id="263016110" old_x="11872.3" old_y="4818.64" type="priority" weight_num="1.0" weight_sum="0.993520518359" x="435544.142191" x_displacement_sum="423671.842191" y="-2723682.69669" y_displacement_sum="-2728501.33669" />
    <node avg_slowdown_ratio="0.99256059515" id="261763330" junction="True" old_x="7423.51" old_y="6553.2" type="priority" weight_num="3.0" weight_sum="2.97768178545" x="-17900336.7767" x_displacement_sum="-17907760.2867" y="-31917432.0186" y_displacement_sum="-31923985.2186" />
    <node avg_slowdown_ratio="0.992201559688" fixed="True" id="262111806" old_x="9071.45" old_y="9012.23" type="priority" weight_num="1.0" weight_sum="0.992201559688" x="899396.760818" x_displacement_sum="890325.310818" y="184766.391187" y_displacement_sum="175754.161187" />
    <node avg_slowdown_ratio="0.99208063355" fixed="True" id="263016162" junction="True" old_x="11744.26" old_y="4540.26" type="priority" weight_num="2.0" weight_sum="1.9841612671" x="-20603.9925821" x_displacement_sum="-32348.2525821" y="-2427512.97797" y_displacement_sum="-2432053.23797" />
    <node avg_slowdown_ratio="0.99064074874" fixed="True" id="263016247" junction="True" old_x="11641.91" old_y="4324.79" type="priority" weight_num="2.0" weight_sum="1.98128149748" x="-8232.2916754" x_displacement_sum="-19874.2016754" y="-2878203.80067" y_displacement_sum="-2882528.59067" />
    <node avg_slowdown_ratio="0.990401919616" fixed="True" id="2927613057" old_x="8774.36" old_y="11645.26" type="priority" weight_num="1.0" weight_sum="0.990401919616" x="-1545680.81088" x_displacement_sum="-1554455.17088" y="3779826.48079" y_displacement_sum="3768181.22079" />
    <node avg_slowdown_ratio="0.990401919616" fixed="True" id="3162585229" old_x="9244.23" old_y="11090.36" type="priority" weight_num="1.0" weight_sum="0.990401919616" x="1404930.08454" x_displacement_sum="1395685.85454" y="2793357.88886" y_displacement_sum="2782267.52886" />
    <node avg_slowdown_ratio="0.99040076794" id="1788613992" junction="True" old_x="8063.15" old_y="9479.84" type="priority" weight_num="3.0" weight_sum="2.97120230382" x="-9126493.38492" x_displacement_sum="-9134556.53492" y="8534049.71507" y_displacement_sum="8524569.87507" />
    <node avg_slowdown_ratio="0.990099009901" fixed="True" id="1038949808" old_x="6976.99" old_y="7183.1" type="priority" weight_num="1.0" weight_sum="0.990099009901" x="-2661241.22179" x_displacement_sum="-2668218.21179" y="-421619.657901" y_displacement_sum="-428802.757901" />
    <node avg_slowdown_ratio="0.9900990099" fixed="True" id="2861666272" junction="True" old_x="6984.3" old_y="7174.02" type="priority" weight_num="2.0" weight_sum="1.9801980198" x="-2151400.94624" x_displacement_sum="-2158385.24624" y="-1416539.05039" y_displacement_sum="-1423713.07039" />
    <node avg_slowdown_ratio="0.990009260105" fixed="True" id="261765377" junction="True" old_x="7012.6" old_y="7138.3" type="priority" weight_num="2.0" weight_sum="1.98001852021" x="-1874566.5035" x_displacement_sum="-1881579.1035" y="-2166033.15223" y_displacement_sum="-2173171.45223" />
    <node avg_slowdown_ratio="0.989920806335" fixed="True" id="1788613985" old_x="8083.69" old_y="9423.96" type="priority" weight_num="1.0" weight_sum="0.989920806335" x="-700515.475557" x_displacement_sum="-708599.165557" y="340775.262933" y_displacement_sum="331351.302933" />
    <node avg_slowdown_ratio="0.989920806335" fixed="True" id="318346884#9-AddedOffRampNode" old_x="11833.96" old_y="4726.28" type="priority" weight_num="1.0" weight_sum="0.989920806335" x="390618.635172" x_displacement_sum="378784.675172" y="-1577533.61635" y_displacement_sum="-1582259.89635" />
    <node avg_slowdown_ratio="0.989560835135" fixed="True" id="263022604" junction="True" old_x="12001.84" old_y="5151.14" type="priority" weight_num="2.0" weight_sum="1.97912167027" x="1191399.70829" x_displacement_sum="1179397.86829" y="-1566895.08189" y_displacement_sum="-1572046.22189" />
    <node avg_slowdown_ratio="0.989560835133" fixed="True" id="263017729" old_x="11900.89" old_y="4926.41" type="priority" weight_num="1.0" weight_sum="0.989560835133" x="461063.631969" x_displacement_sum="449162.741969" y="-1380114.97513" y_displacement_sum="-1385041.38513" />
    <node avg_slowdown_ratio="0.989202159568" fixed="True" id="3791348659" old_x="9229.96" old_y="11995.14" type="priority" weight_num="1.0" weight_sum="0.989202159568" x="1234523.99064" x_displacement_sum="1225294.03064" y="4624178.18816" y_displacement_sum="4612183.04816" />
    <node avg_slowdown_ratio="0.988660907125" fixed="True" id="263022694" junction="True" old_x="11213.65" old_y="5578.7" type="priority" weight_num="2.0" weight_sum="1.97732181425" x="615696.442938" x_displacement_sum="604482.792938" y="-1614831.80842" y_displacement_sum="-1620410.50842" />
    <node avg_slowdown_ratio="0.988602279544" fixed="True" id="300217922" old_x="9040.54" old_y="9109.36" type="priority" weight_num="1.0" weight_sum="0.988602279544" x="819792.982488" x_displacement_sum="810752.442488" y="865363.23626" y_displacement_sum="856253.87626" />
    <node avg_slowdown_ratio="0.98800239952" fixed="True" id="1065139769" old_x="6305.31" old_y="9172.54" type="priority" weight_num="1.0" weight_sum="0.98800239952" x="-3482175.22192" x_displacement_sum="-3488480.53192" y="661296.401566" y_displacement_sum="652123.861566" />
    <node avg_slowdown_ratio="0.98800239952" fixed="True" id="3926859711" old_x="9353.63" old_y="11175.86" type="priority" weight_num="1.0" weight_sum="0.98800239952" x="1590903.23095" x_displacement_sum="1581549.60095" y="2309764.17363" y_displacement_sum="2298588.31363" />
    <node avg_slowdown_ratio="0.987985029605" fixed="True" id="2861666265" junction="True" old_x="7009.66" old_y="7171.52" type="priority" weight_num="2.0" weight_sum="1.97597005921" x="-1533865.63608" x_displacement_sum="-1540875.29608" y="-1394982.59794" y_displacement_sum="-1402154.11794" />
    <node avg_slowdown_ratio="0.987402519496" fixed="True" id="418671520#2-AddedOnRampNode" old_x="9156.84" old_y="9162.67" type="zipper" weight_num="1.0" weight_sum="0.987402519496" x="845113.806762" x_displacement_sum="835956.966762" y="985521.596304" y_displacement_sum="976358.926304" />
    <node avg_slowdown_ratio="0.987041036717" fixed="True" id="1320235607" old_x="12167.49" old_y="5498.38" type="priority" weight_num="1.0" weight_sum="0.987041036717" x="1689382.04729" x_displacement_sum="1677214.55729" y="-336947.771295" y_displacement_sum="-342446.151295" />
    <node avg_slowdown_ratio="0.986802639472" fixed="True" id="1807172979" old_x="8956.84" old_y="9102.93" type="priority" weight_num="1.0" weight_sum="0.986802639472" x="594428.228437" x_displacement_sum="585471.388437" y="646811.640859" y_displacement_sum="637708.710859" />
    <node avg_slowdown_ratio="0.986802099625" fixed="True" id="262111055" junction="True" old_x="8864.46" old_y="8948.75" type="priority" weight_num="2.0" weight_sum="1.97360419925" x="456765.050318" x_displacement_sum="447900.590318" y="202205.153352" y_displacement_sum="193256.403352" />
    <node avg_slowdown_ratio="0.986801055917" id="2928747055" junction="True" old_x="8985.09" old_y="11889.17" type="priority" weight_num="3.0" weight_sum="2.96040316775" x="2072759.43093" x_displacement_sum="2063774.34093" y="40842358.2586" y_displacement_sum="40830469.0886" />
    <node avg_slowdown_ratio="0.98674239234" fixed="True" id="4173759211" junction="True" old_x="8863.36" old_y="11522.47" type="priority" weight_num="2.0" weight_sum="1.97348478468" x="429157.286134" x_displacement_sum="420293.926134" y="3162287.10939" y_displacement_sum="3150764.63939" />
    <node avg_slowdown_ratio="0.986401783717" fixed="True" id="cluster_288734549_288734550" junction="True" old_x="9210.64" old_y="11054.67" type="priority" weight_num="3.0" weight_sum="2.95920535115" x="263628.310201" x_displacement_sum="254417.670201" y="1367290.73801" y_displacement_sum="1356236.06801" />
    <node avg_slowdown_ratio="0.986202759448" fixed="True" id="24206855#4-AddedOffRampNode" old_x="9109.59" old_y="8969.27" type="priority" weight_num="1.0" weight_sum="0.986202759448" x="847293.952119" x_displacement_sum="838184.362119" y="66048.1767003" y_displacement_sum="57078.9067003" />
    <node avg_slowdown_ratio="0.985902819435" fixed="True" id="288734552" junction="True" old_x="9218.91" old_y="11073.68" type="priority" weight_num="2.0" weight_sum="1.97180563887" x="836227.673654" x_displacement_sum="827008.763654" y="2740676.76575" y_displacement_sum="2729603.08575" />
    <node avg_slowdown_ratio="0.985721862105" fixed="True" id="cluster_1636588566_3926859712_3926859713" junction="True" old_x="9377.61" old_y="11201.27" type="priority" weight_num="2.0" weight_sum="1.97144372421" x="1502381.75961" x_displacement_sum="1493004.14961" y="2613225.30985" y_displacement_sum="2602024.03985" />
    <node avg_slowdown_ratio="0.985602879424" fixed="True" id="4173759212" old_x="8844.02" old_y="11548.63" type="priority" weight_num="1.0" weight_sum="0.985602879424" x="-145818.558189" x_displacement_sum="-154662.578189" y="3546606.49063" y_displacement_sum="3535057.86063" />
    <node avg_slowdown_ratio="0.985602879424" fixed="True" id="434371436#6-AddedOnRampNode" old_x="8944.46" old_y="9010.43" type="priority" weight_num="1.0" weight_sum="0.985602879424" x="654384.507445" x_displacement_sum="645440.047445" y="113899.15035" y_displacement_sum="104888.72035" />
    <node avg_slowdown_ratio="0.98560152956" fixed="True" id="2927613060" junction="True" old_x="8820.88" old_y="11579.91" type="priority" weight_num="2.0" weight_sum="1.97120305912" x="-466324.474251" x_displacement_sum="-475145.354251" y="3176714.31565" y_displacement_sum="3165134.40565" />
    <node avg_slowdown_ratio="0.9850029994" fixed="True" id="232754823#13-AddedOffRampNode" old_x="9322.85" old_y="11152.16" type="priority" weight_num="1.0" weight_sum="0.9850029994" x="1001745.58355" x_displacement_sum="992422.733548" y="2051139.55706" y_displacement_sum="2039987.39706" />
    <node avg_slowdown_ratio="0.98487894146" fixed="True" id="261765414" junction="True" old_x="7348.15" old_y="6744.83" type="priority" weight_num="2.0" weight_sum="1.96975788292" x="-1374404.89855" x_displacement_sum="-1381753.04855" y="-1913249.66255" y_displacement_sum="-1919994.49255" />
    <node avg_slowdown_ratio="0.98483406656" fixed="True" id="261765317" junction="True" old_x="7397.94" old_y="6686.41" type="priority" weight_num="2.0" weight_sum="1.96966813312" x="-530472.983219" x_displacement_sum="-537870.923219" y="-2020224.36059" y_displacement_sum="-2026910.77059" />
    <node avg_slowdown_ratio="0.98476244276" fixed="True" id="cluster_2927613047_2927613048_2927613049" junction="True" old_x="8857.39" old_y="11678.88" type="priority" weight_num="2.0" weight_sum="1.96952488552" x="-87627.2432381" x_displacement_sum="-96484.6332381" y="3541277.60603" y_displacement_sum="3529598.72603" />
    <node avg_slowdown_ratio="0.98476201088" fixed="True" id="cluster_2928746276_2928746277_2928746278_3791348652" junction="True" old_x="9103.21" old_y="11860.45" type="priority" weight_num="3.0" weight_sum="2.95428603264" x="449108.906426" x_displacement_sum="440005.696426" y="3633764.96093" y_displacement_sum="3621904.51093" />
    <node avg_slowdown_ratio="0.9845212383" fixed="True" id="263016243" junction="True" old_x="11571.39" old_y="4171.63" type="priority" weight_num="2.0" weight_sum="1.9690424766" x="-42103.1950878" x_displacement_sum="-53674.5850878" y="-3005866.67117" y_displacement_sum="-3010038.30117" />
    <node avg_slowdown_ratio="0.984477226965" fixed="True" id="3791348663" junction="True" old_x="9216.42" old_y="11939.18" type="priority" weight_num="2.0" weight_sum="1.96895445393" x="1364268.63667" x_displacement_sum="1355052.21667" y="4209320.39994" y_displacement_sum="4197381.21994" />
    <node avg_slowdown_ratio="0.984102747485" fixed="True" id="cluster_2928746235_2928747257_2928747258" junction="True" old_x="8952.34" old_y="11750.43" type="priority" weight_num="2.0" weight_sum="1.96820549497" x="455954.702223" x_displacement_sum="447002.362223" y="3622256.49026" y_displacement_sum="3610506.06026" />
    <node avg_slowdown_ratio="0.983981281495" fixed="True" id="1845027350" junction="True" old_x="10026.1" old_y="9959.74" type="priority" weight_num="2.0" weight_sum="1.96796256299" x="2907420.16589" x_displacement_sum="2897394.06589" y="1496739.44343" y_displacement_sum="1486779.70343" />
    <node avg_slowdown_ratio="0.98366407915" fixed="True" id="1320235955" junction="True" old_x="12111.89" old_y="5385.79" tl="GS_1320235955" type="traffic_light" weight_num="2.0" weight_sum="1.9673281583" x="1681090.28074" x_displacement_sum="1668978.39074" y="-469751.628766" y_displacement_sum="-475137.418766" />
    <node avg_slowdown_ratio="0.983425952075" fixed="True" id="261662745" junction="True" old_x="9075.59" old_y="9105.28" type="priority" weight_num="2.0" weight_sum="1.96685190415" x="1008875.51658" x_displacement_sum="999799.92658" y="788088.262265" y_displacement_sum="778982.982265" />
    <node avg_slowdown_ratio="0.983394343755" fixed="True" id="263022653" junction="True" old_x="11145.1" old_y="5550.27" type="priority" weight_num="2.0" weight_sum="1.96678868751" x="107003.366642" x_displacement_sum="95858.2666417" y="-1730437.19687" y_displacement_sum="-1735987.46687" />
    <node avg_slowdown_ratio="0.983203359328" fixed="True" id="811037786" old_x="9135.97" old_y="8929.8" type="priority" weight_num="1.0" weight_sum="0.983203359328" x="1012512.96889" x_displacement_sum="1003376.99889" y="-47898.3230058" y_displacement_sum="-56828.1230058" />
    <node avg_slowdown_ratio="0.983081353492" fixed="True" id="gneJ316" old_x="9382.24" old_y="12059.73" type="priority" weight_num="1.0" weight_sum="0.983081353492" x="1512420.24006" x_displacement_sum="1503038.00006" y="4488449.88704" y_displacement_sum="4476390.15704" />
    <node avg_slowdown_ratio="0.98296136309" id="263016232" junction="True" old_x="11962.26" old_y="4649.22" type="priority" weight_num="3.0" weight_sum="2.94888408927" x="9028853.52657" x_displacement_sum="9016891.26657" y="-23268685.0866" y_displacement_sum="-23273334.3066" />
    <node avg_slowdown_ratio="0.982603479304" fixed="True" id="2928746242" old_x="8730.84" old_y="12011.52" type="priority" weight_num="1.0" weight_sum="0.982603479304" x="-1805929.7256" x_displacement_sum="-1814660.5656" y="4077033.30711" y_displacement_sum="4065021.78711" />
    <node avg_slowdown_ratio="0.982044370745" fixed="True" id="261765374" junction="True" old_x="7164.11" old_y="6963.17" type="priority" weight_num="2.0" weight_sum="1.96408874149" x="-1689740.88337" x_displacement_sum="-1696904.99337" y="-1267350.8999" y_displacement_sum="-1274314.0699" />
    <node avg_slowdown_ratio="0.98200359928" fixed="True" id="1845019564" old_x="9177.02" old_y="9178.15" type="priority" weight_num="1.0" weight_sum="0.98200359928" x="663845.427119" x_displacement_sum="654668.407119" y="1166530.7384" y_displacement_sum="1157352.5884" />
    <node avg_slowdown_ratio="0.98200359928" fixed="True" id="2927613053" old_x="8845.72" old_y="11602.77" type="priority" weight_num="1.0" weight_sum="0.98200359928" x="144248.280314" x_displacement_sum="135402.560314" y="3277391.79708" y_displacement_sum="3265789.02708" />
    <node avg_slowdown_ratio="0.98200359928" fixed="True" id="3162585222" old_x="9181.28" old_y="11022.99" type="priority" weight_num="1.0" weight_sum="0.98200359928" x="430097.334023" x_displacement_sum="420916.054023" y="1111339.14289" y_displacement_sum="1100316.15289" />
    <node avg_slowdown_ratio="0.98200359928" fixed="True" id="3510035110" old_x="8964.93" old_y="11383.58" type="priority" weight_num="1.0" weight_sum="0.98200359928" x="63872.9316367" x_displacement_sum="54908.0016367" y="3305806.70435" y_displacement_sum="3294423.12435" />
    <node avg_slowdown_ratio="0.98200359928" fixed="True" id="4280981646" old_x="8922.33" old_y="11441.94" type="priority" weight_num="1.0" weight_sum="0.98200359928" x="264802.514963" x_displacement_sum="255880.184963" y="3125708.90144" y_displacement_sum="3114266.96144" />
    <node avg_slowdown_ratio="0.981641468685" fixed="True" id="261702938" junction="True" old_x="5933.69" old_y="7522.52" type="priority" weight_num="2.0" weight_sum="1.96328293737" x="-3390370.93341" x_displacement_sum="-3396304.62341" y="-2877807.22229" y_displacement_sum="-2885329.74229" />
    <node avg_slowdown_ratio="0.981601807787" fixed="True" id="cluster_1636594565_3926859714" junction="True" old_x="9334.72" old_y="11173.81" type="priority" weight_num="3.0" weight_sum="2.94480542336" x="1102704.4597" x_displacement_sum="1093369.7397" y="2352110.57397" y_displacement_sum="2340936.76397" />
    <node avg_slowdown_ratio="0.98146310263" fixed="True" id="261988252" junction="True" old_x="8410.62" old_y="8590.31" type="priority" weight_num="2.0" weight_sum="1.96292620526" x="-1006774.17651" x_displacement_sum="-1015184.79651" y="122911.56617" y_displacement_sum="114321.25617" />
    <node avg_slowdown_ratio="0.981403719256" fixed="True" id="1065139585" old_x="6367.27" old_y="9243.87" type="priority" weight_num="1.0" weight_sum="0.981403719256" x="-2509951.1611" x_displacement_sum="-2516318.4311" y="2111058.67134" y_displacement_sum="2101814.80134" />
    <node avg_slowdown_ratio="0.981403719256" fixed="True" id="26244311#12-AddedOffRampNode" old_x="9099.52" old_y="10965.41" type="priority" weight_num="1.0" weight_sum="0.981403719256" x="998741.23417" x_displacement_sum="989641.71417" y="1426105.76045" y_displacement_sum="1415140.35045" />
    <node avg_slowdown_ratio="0.981403719256" fixed="True" id="2927613055" old_x="8837.21" old_y="11659.89" type="priority" weight_num="1.0" weight_sum="0.981403719256" x="-465604.342537" x_displacement_sum="-474441.552537" y="3676092.99875" y_displacement_sum="3664433.10875" />
    <node avg_slowdown_ratio="0.98114460474" fixed="True" id="261765334" junction="True" old_x="7181.93" old_y="6942.21" type="priority" weight_num="2.0" weight_sum="1.96228920948" x="-815142.542451" x_displacement_sum="-822324.472451" y="-2242326.38768" y_displacement_sum="-2249268.59768" />
    <node avg_slowdown_ratio="0.981098433815" fixed="True" id="261765443" junction="True" old_x="7654.49" old_y="6376.11" type="priority" weight_num="2.0" weight_sum="1.96219686763" x="-583876.705928" x_displacement_sum="-591531.195928" y="-2555133.03928" y_displacement_sum="-2561509.14928" />
    <node avg_slowdown_ratio="0.981098109811" fixed="True" id="2861666266" old_x="7007.02" old_y="7144.9" type="priority" weight_num="1.0" weight_sum="0.981098109811" x="-2613208.17049" x_displacement_sum="-2620215.19049" y="-1425055.51011" y_displacement_sum="-1432200.41011" />
    <node avg_slowdown_ratio="0.98109810981" fixed="True" id="1362835771" junction="True" old_x="7512.84" old_y="6549.88" type="priority" weight_num="2.0" weight_sum="1.96219621962" x="-784422.548451" x_displacement_sum="-791935.388451" y="-2457097.62438" y_displacement_sum="-2463647.50438" />
    <node avg_slowdown_ratio="0.980921526278" fixed="True" id="3162585233" old_x="9067.86" old_y="11248.42" type="priority" weight_num="1.0" weight_sum="0.980921526278" x="724983.866635" x_displacement_sum="715916.006635" y="3457299.83618" y_displacement_sum="3446051.41618" />
    <node avg_slowdown_ratio="0.980921526278" fixed="True" id="gneJ69" old_x="11668.35" old_y="11115.08" type="priority" weight_num="1.0" weight_sum="0.980921526278" x="2507343.1023" x_displacement_sum="2495674.7523" y="1901146.28429" y_displacement_sum="1890031.20429" />
    <node avg_slowdown_ratio="0.980803839232" fixed="True" id="26244311#12-AddedOnRampNode" old_x="9091.57" old_y="10959.81" type="priority" weight_num="1.0" weight_sum="0.980803839232" x="1015517.31933" x_displacement_sum="1006425.74933" y="1408729.38471" y_displacement_sum="1397769.57471" />
    <node avg_slowdown_ratio="0.98080383923" fixed="True" id="2361777076" junction="True" old_x="9230.65" old_y="11057.28" type="priority" weight_num="2.0" weight_sum="1.96160767846" x="1662526.52489" x_displacement_sum="1653295.87489" y="1526793.6774" y_displacement_sum="1515736.3974" />
    <node avg_slowdown_ratio="0.980648388815" fixed="True" id="261763329" junction="True" old_x="7461.32" old_y="6587.94" type="priority" weight_num="2.0" weight_sum="1.96129677763" x="-734670.35765" x_displacement_sum="-742131.67765" y="-2196793.28599" y_displacement_sum="-2203381.22599" />
    <node avg_slowdown_ratio="0.98026312664" fixed="True" id="2510805192" junction="True" old_x="8620.3" old_y="8789.78" type="priority" weight_num="2.0" weight_sum="1.96052625328" x="215157.269326" x_displacement_sum="206536.969326" y="-345857.882561" y_displacement_sum="-354647.662561" />
    <node avg_slowdown_ratio="0.980203959208" fixed="True" id="1052165987" old_x="9224.68" old_y="7935.87" type="priority" weight_num="1.0" weight_sum="0.980203959208" x="731357.848011" x_displacement_sum="722133.168011" y="-1158707.03492" y_displacement_sum="-1166642.90492" />
    <node avg_slowdown_ratio="0.980201583873" fixed="True" id="1268402934" old_x="5985.49" old_y="7605.37" type="priority" weight_num="1.0" weight_sum="0.980201583873" x="-2630588.99856" x_displacement_sum="-2636574.48856" y="-1033520.26084" y_displacement_sum="-1041125.63084" />
    <node avg_slowdown_ratio="0.980198019802" fixed="True" id="262185724" old_x="8693.25" old_y="11940.77" type="priority" weight_num="1.0" weight_sum="0.980198019802" x="-1401192.46399" x_displacement_sum="-1409885.71399" y="4288877.00357" y_displacement_sum="4276936.23357" />
    <node avg_slowdown_ratio="0.980198019802" fixed="True" id="434375951#4-AddedOnRampNode" old_x="11299.49" old_y="5367.84" type="priority" weight_num="1.0" weight_sum="0.980198019802" x="286380.68364" x_displacement_sum="275081.19364" y="-1800457.65818" y_displacement_sum="-1805825.49818" />
    <node avg_slowdown_ratio="0.980021598273" id="2928746240" junction="True" old_x="8829.65" old_y="11912.69" type="priority" weight_num="4.0" weight_sum="3.92008639309" x="-6258871.30709" x_displacement_sum="-6267700.95709" y="40745410.4582" y_displacement_sum="40733497.7682" />
    <node avg_slowdown_ratio="0.979841612671" id="1836783794" old_x="6265.14" old_y="9114.05" type="priority" weight_num="1.0" weight_sum="0.979841612671" x="-35434974.888" x_displacement_sum="-35441240.028" y="8260781.02356" y_displacement_sum="8251666.97356" />
    <node avg_slowdown_ratio="0.97984161267" id="1882098843" junction="True" old_x="8822.35" old_y="11454.27" type="priority" weight_num="3.0" weight_sum="2.93952483801" x="-3372887.95636" x_displacement_sum="-3381710.30636" y="27987673.4444" y_displacement_sum="27976219.1744" />
    <node avg_slowdown_ratio="0.979604079184" fixed="True" id="3976263548" old_x="14348.59" old_y="3914.64" type="priority" weight_num="1.0" weight_sum="0.979604079184" x="1508418.8171" x_displacement_sum="1494070.2271" y="-2186193.56047" y_displacement_sum="-2190108.20047" />
    <node avg_slowdown_ratio="0.979604079183" fixed="True" id="cluster_2569477378_289361580" junction="True" old_x="9257.48" old_y="11957.83" tl="cluster_2569477378_289361580" type="traffic_light" weight_num="3.0" weight_sum="2.93881223755" x="1606394.55763" x_displacement_sum="1597137.07763" y="4320249.76258" y_displacement_sum="4308291.93258" />
    <node avg_slowdown_ratio="0.979573631708" fixed="True" id="cluster_1791243436_1791243443_942404746_942404760" junction="True" old_x="11632.65" old_y="11113.21" tl="cluster_1791243436_1791243443_942404746_942404760" type="traffic_light" weight_num="4.0" weight_sum="3.91829452683" x="2128542.50899" x_displacement_sum="2116909.85899" y="1665588.06881" y_displacement_sum="1654474.85881" />
    <node avg_slowdown_ratio="0.979481641469" fixed="True" id="3162585225" old_x="9187.35" old_y="11086.58" type="priority" weight_num="1.0" weight_sum="0.979481641469" x="99256.2242735" x_displacement_sum="90068.8742735" y="2410794.13926" y_displacement_sum="2399707.55926" />
    <node avg_slowdown_ratio="0.979481641469" fixed="True" id="4026572320" old_x="5247.66" old_y="7369.46" type="priority" weight_num="1.0" weight_sum="0.979481641469" x="-3944441.0869" x_displacement_sum="-3949688.7469" y="-1263475.44626" y_displacement_sum="-1270844.90626" />
    <node avg_slowdown_ratio="0.97900419916" fixed="True" id="3791348649" old_x="9198.23" old_y="11924.87" type="priority" weight_num="1.0" weight_sum="0.97900419916" x="1187954.81247" x_displacement_sum="1178756.58247" y="3795602.55143" y_displacement_sum="3783677.68143" />
    <node avg_slowdown_ratio="0.9788485328" fixed="True" id="263017588" junction="True" old_x="10452.08" old_y="5579.61" type="priority" weight_num="2.0" weight_sum="1.9576970656" x="4449.95880876" x_displacement_sum="-6002.12119124" y="-1943570.76205" y_displacement_sum="-1949150.37205" />
    <node avg_slowdown_ratio="0.978847884788" fixed="True" id="1362835716" old_x="7568.85" old_y="6479.42" type="priority" weight_num="1.0" weight_sum="0.978847884788" x="-170224.743592" x_displacement_sum="-177793.593592" y="-2429913.70916" y_displacement_sum="-2436393.12916" />
    <node avg_slowdown_ratio="0.978847884788" fixed="True" id="318274914#20-AddedOnRampNode" old_x="7448.45" old_y="6626.39" type="priority" weight_num="1.0" weight_sum="0.978847884788" x="-895927.474243" x_displacement_sum="-903375.924243" y="-2149501.10281" y_displacement_sum="-2156127.49281" />
    <node avg_slowdown_ratio="0.978847884788" fixed="True" id="434375951#4-AddedOffRampNode" old_x="11254.4" old_y="5421.87" type="priority" weight_num="1.0" weight_sum="0.978847884788" x="277811.75409" x_displacement_sum="266557.35409" y="-1593429.8822" y_displacement_sum="-1598851.7522" />
    <node avg_slowdown_ratio="0.97858333301" fixed="True" id="261665492" junction="True" old_x="9952.06" old_y="6953.45" type="priority" weight_num="2.0" weight_sum="1.95716666602" x="1351736.62045" x_displacement_sum="1341784.56045" y="-1533812.51932" y_displacement_sum="-1540765.96932" />
    <node avg_slowdown_ratio="0.978581713465" fixed="True" id="2569477318" junction="True" old_x="9619.69" old_y="12258.79" type="priority" weight_num="2.0" weight_sum="1.95716342693" x="1251375.81322" x_displacement_sum="1241756.12322" y="3641888.94735" y_displacement_sum="3629630.15735" />
    <node avg_slowdown_ratio="0.97847518705" fixed="True" id="2089502246" junction="True" old_x="9011.61" old_y="10899.77" type="priority" weight_num="2.0" weight_sum="1.9569503741" x="972744.124967" x_displacement_sum="963732.514967" y="1498885.74969" y_displacement_sum="1487985.97969" />
    <node avg_slowdown_ratio="0.978397839784" fixed="True" id="263022640" old_x="11190.33" old_y="5498.64" type="priority" weight_num="1.0" weight_sum="0.978397839784" x="292030.896375" x_displacement_sum="280840.566375" y="-1906991.57246" y_displacement_sum="-1912490.21246" />
    <node avg_slowdown_ratio="0.978397839784" fixed="True" id="434375951#6-AddedOnRampNode" old_x="11080.43" old_y="5626.54" type="priority" weight_num="1.0" weight_sum="0.978397839784" x="408978.099895" x_displacement_sum="397897.669895" y="-1442938.15224" y_displacement_sum="-1448564.69224" />
    <node avg_slowdown_ratio="0.978221742263" id="2928747035" junction="True" old_x="8897.74" old_y="11822.45" type="priority" weight_num="4.0" weight_sum="3.91288696905" x="-3650157.70387" x_displacement_sum="-3659055.44387" y="40219838.7591" y_displacement_sum="40208016.3091" />
    <node avg_slowdown_ratio="0.978101139445" fixed="True" id="cluster_261671927_261671928_261671933_261671934" junction="True" old_x="7539.2" old_y="6505.64" tl="cluster_261671927_261671928_261671933_261671934" type="traffic_light" weight_num="4.0" weight_sum="3.91240455778" x="-859719.224162" x_displacement_sum="-867258.424162" y="-2648205.43086" y_displacement_sum="-2654711.07086" />
    <node avg_slowdown_ratio="0.977947794779" fixed="True" id="2325763453" old_x="14420.79" old_y="3965.66" type="priority" weight_num="1.0" weight_sum="0.977947794779" x="2158239.33403" x_displacement_sum="2143818.54403" y="-1502323.89195" y_displacement_sum="-1506289.55195" />