<?xml version='1.0' encoding='UTF-8'?>
<nodes xmlns:xsi="http://www.w3.org/2001/XMLSchema-instance" version="0.27" xsi:noNamespaceSchemaLocation="http://sumo.dlr.de/xsd/edges_file.xsd"><node avg_slowdown_ratio="0.323974082075" id="node_12x10" junction="True" old_x="1200.0" old_y="1000.0" type="right_before_left" weight_num="4.0" weight_sum="1.2958963283" x="1205.31569262" x_displacement_sum="5.31569261672" y="1007.55986661" y_displacement_sum="7.55986661119" />
    <node avg_slowdown_ratio="0.323794096473" id="node_10x13" junction="True" old_x="1000.0" old_y="1300.0" type="right_before_left" weight_num="4.0" weight_sum="1.29517638589" x="995.936569333" x_displacement_sum="-4.0634306671" y="1310.68416915" y_displacement_sum="10.6841691537" />
    <node avg_slowdown_ratio="0.317674586032" id="node_12x05" junction="True" old_x="1200.0" old_y="500.0" type="right_before_left" weight_num="4.0" weight_sum="1.27069834413" x="1201.44636496" x_displacement_sum="1.44636495806" y="489.424284649" y_displacement_sum="-10.5757153506" />
    <node avg_slowdown_ratio="0.31407487401" id="node_09x05" junction="True" old_x="900.0" old_y="500.0" type="right_before_left" weight_num="4.0" weight_sum="1.25629949604" x="914.825099604" x_displacement_sum="14.8250996042" y="483.95691805" y_displacement_sum="-16.0430819499" />
    <node avg_slowdown_ratio="0.313354931605" id="node_11x12" junction="True" old_x="1100.0" old_y="1200.0" type="right_before_left" weight_num="4.0" weight_sum="1.25341972642" x="1119.81904699" x_displacement_sum="19.8190469883" y="1197.90932795" y_displacement_sum="-2.09067205166" />
    <node avg_slowdown_ratio="0.313174946005" id="node_10x08" junction="True" old_x="1000.0" old_y="800.0" type="right_before_left" weight_num="4.0" weight_sum="1.25269978402" x="998.368557187" x_displacement_sum="-1.631442813" y="810.936605359" y_displacement_sum="10.936605359" />
    <node avg_slowdown_ratio="0.3124550036" id="node_10x11" junction="True" old_x="1000.0" old_y="1100.0" type="right_before_left" weight_num="4.0" weight_sum="1.2498200144" x="1003.13845575" x_displacement_sum="3.13845575102" y="1089.3004458" y_displacement_sum="-10.6995542023" />
    <node avg_slowdown_ratio="0.309935205183" id="node_10x10" junction="True" old_x="1000.0" old_y="1000.0" type="right_before_left" weight_num="4.0" weight_sum="1.23974082073" x="1000.86087247" x_displacement_sum="0.860872469622" y="987.526596882" y_displacement_sum="-12.4734031178" />
    <node avg_slowdown_ratio="0.309755219583" id="node_09x12" junction="True" old_x="900.0" old_y="1200.0" type="right_before_left" weight_num="4.0" weight_sum="1.23902087833" x="887.186550032" x_displacement_sum="-12.8134499676" y="1205.61992421" y_displacement_sum="5.61992420667" />
    <node avg_slowdown_ratio="0.308675305975" id="node_08x06" junction="True" old_x="800.0" old_y="600.0" type="right_before_left" weight_num="4.0" weight_sum="1.2347012239" x="779.296251208" x_displacement_sum="-20.7037487923" y="608.348988803" y_displacement_sum="8.34898880285" />
    <node avg_slowdown_ratio="0.307415406768" id="node_11x07" junction="True" old_x="1100.0" old_y="700.0" type="right_before_left" weight_num="4.0" weight_sum="1.22966162707" x="1096.05981268" x_displacement_sum="-3.940187315" y="698.463960462" y_displacement_sum="-1.5360395376" />
    <node avg_slowdown_ratio="0.306515478763" id="node_09x11" junction="True" old_x="900.0" old_y="1100.0" type="right_before_left" weight_num="4.0" weight_sum="1.22606191505" x="896.186079025" x_displacement_sum="-3.81392097518" y="1101.29766624" y_displacement_sum="1.29766623552" />
    <node avg_slowdown_ratio="0.305975521957" id="node_07x14" junction="True" old_x="700.0" old_y="1400.0" type="right_before_left" weight_num="4.0" weight_sum="1.22390208783" x="719.249884636" x_displacement_sum="19.249884636" y="1405.42813482" y_displacement_sum="5.42813482265" />
    <node avg_slowdown_ratio="0.305075593953" id="node_06x15" junction="True" old_x="600.0" old_y="1500.0" type="right_before_left" weight_num="4.0" weight_sum="1.22030237581" x="594.020196181" x_displacement_sum="-5.97980381925" y="1528.12196312" y_displacement_sum="28.1219631248" />
    <node avg_slowdown_ratio="0.30471562275" id="node_08x11" junction="True" old_x="800.0" old_y="1100.0" type="right_before_left" weight_num="4.0" weight_sum="1.218862491" x="796.84758525" x_displacement_sum="-3.15241475014" y="1086.64200238" y_displacement_sum="-13.3579976244" />
    <node avg_slowdown_ratio="0.304535637147" id="node_07x12" junction="True" old_x="700.0" old_y="1200.0" type="right_before_left" weight_num="4.0" weight_sum="1.21814254859" x="695.963821243" x_displacement_sum="-4.03617875739" y="1208.82059377" y_displacement_sum="8.82059376756" />
    <node avg_slowdown_ratio="0.303455723542" id="node_07x11" junction="True" old_x="700.0" old_y="1100.0" type="right_before_left" weight_num="4.0" weight_sum="1.21382289417" x="689.203608169" x_displacement_sum="-10.7963918314" y="1087.76681641" y_displacement_sum="-12.2331835875" />
    <node avg_slowdown_ratio="0.302555795538" id="node_06x12" junction="True" old_x="600.0" old_y="1200.0" type="right_before_left" weight_num="4.0" weight_sum="1.21022318215" x="587.878442429" x_displacement_sum="-12.1215575712" y="1205.51256965" y_displacement_sum="5.51256965336" />
    <node avg_slowdown_ratio="0.301835853132" id="node_11x06" junction="True" old_x="1100.0" old_y="600.0" type="right_before_left" weight_num="4.0" weight_sum="1.20734341253" x="1080.455977" x_displacement_sum="-19.5440230041" y="592.547301717" y_displacement_sum="-7.45269828254" />
    <node avg_slowdown_ratio="0.301835853132" id="node_12x08" junction="True" old_x="1200.0" old_y="800.0" type="right_before_left" weight_num="4.0" weight_sum="1.20734341253" x="1203.2574552" x_displacement_sum="3.2574551991" y="801.564461284" y_displacement_sum="1.56446128389" />
    <node avg_slowdown_ratio="0.301115910727" id="node_06x14" junction="True" old_x="600.0" old_y="1400.0" type="right_before_left" weight_num="4.0" weight_sum="1.20446364291" x="596.172628288" x_displacement_sum="-3.82737171193" y="1399.31681011" y_displacement_sum="-0.683189886823" />
    <node avg_slowdown_ratio="0.300935925125" id="node_09x07" junction="True" old_x="900.0" old_y="700.0" type="right_before_left" weight_num="4.0" weight_sum="1.2037437005" x="898.517155879" x_displacement_sum="-1.48284412106" y="695.969588694" y_displacement_sum="-4.0304113062" />
    <node avg_slowdown_ratio="0.300935925125" id="node_12x06" junction="True" old_x="1200.0" old_y="600.0" type="right_before_left" weight_num="4.0" weight_sum="1.2037437005" x="1209.54917528" x_displacement_sum="9.54917528136" y="595.051270005" y_displacement_sum="-4.94872999525" />
    <node avg_slowdown_ratio="0.30003599712" id="node_14x07" junction="True" old_x="1400.0" old_y="700.0" type="right_before_left" weight_num="4.0" weight_sum="1.20014398848" x="1397.72774022" x_displacement_sum="-2.27225978172" y="696.876346955" y_displacement_sum="-3.12365304506" />
    <node avg_slowdown_ratio="0.299316054715" id="node_13x09" junction="True" old_x="1300.0" old_y="900.0" type="right_before_left" weight_num="4.0" weight_sum="1.19726421886" x="1312.345297" x_displacement_sum="12.3452970011" y="897.532584246" y_displacement_sum="-2.46741575423" />
    <node avg_slowdown_ratio="0.299136069115" id="node_08x10" junction="True" old_x="800.0" old_y="1000.0" type="right_before_left" weight_num="4.0" weight_sum="1.19654427646" x="799.180640487" x_displacement_sum="-0.819359513337" y="983.335022945" y_displacement_sum="-16.6649770547" />
    <node avg_slowdown_ratio="0.298956083513" id="node_11x09" junction="True" old_x="1100.0" old_y="900.0" type="right_before_left" weight_num="4.0" weight_sum="1.19582433405" x="1100.09067819" x_displacement_sum="0.0906781865863" y="889.980122932" y_displacement_sum="-10.0198770677" />
    <node avg_slowdown_ratio="0.298776097912" id="node_12x04" junction="True" old_x="1200.0" old_y="400.0" type="right_before_left" weight_num="4.0" weight_sum="1.19510439165" x="1194.69485047" x_displacement_sum="-5.3051495271" y="380.036026285" y_displacement_sum="-19.9639737149" />
    <node avg_slowdown_ratio="0.29859611231" id="node_12x07" junction="True" old_x="1200.0" old_y="700.0" type="right_before_left" weight_num="4.0" weight_sum="1.19438444924" x="1204.79163184" x_displacement_sum="4.79163183598" y="706.756373267" y_displacement_sum="6.75637326734" />
    <node avg_slowdown_ratio="0.29841612671" id="node_10x14" junction="True" old_x="1000.0" old_y="1400.0" type="right_before_left" weight_num="4.0" weight_sum="1.19366450684" x="994.39750512" x_displacement_sum="-5.60249488028" y="1417.18902619" y_displacement_sum="17.1890261943" />
    <node avg_slowdown_ratio="0.297696184305" id="node_20x20" junction="True" old_x="2000.0" old_y="2000.0" type="right_before_left" weight_num="2.0" weight_sum="0.595392368611" x="2031.07162684" x_displacement_sum="31.0716268434" y="2029.61320507" y_displacement_sum="29.6132050684" />
<node avg_slowdown_ratio="0.297516198705" id="node_11x14" junction="True" old_x="1100.0" old_y="1400.0" type="right_before_left" weight_num="4.0" weight_sum="1.19006479482" x="1111.69714641" x_displacement_sum="11.6971464059" y="1418.90223618" y_displacement_sum="18.9022361842" />
    <node avg_slowdown_ratio="0.296436285097" id="node_06x05" junction="True" old_x="600.0" old_y="500.0" type="right_before_left" weight_num="4.0" weight_sum="1.18574514039" x="601.312497006" x_displacement_sum="1.31249700615" y="489.399199689" y_displacement_sum="-10.6008003106" />
    <node avg_slowdown_ratio="0.296436285097" id="node_13x08" junction="True" old_x="1300.0" old_y="800.0" type="right_before_left" weight_num="4.0" weight_sum="1.18574514039" x="1297.5904719" x_displacement_sum="-2.40952810172" y="803.503990293" y_displacement_sum="3.50399029295" />
    <node avg_slowdown_ratio="0.29535637149" id="node_08x12" junction="True" old_x="800.0" old_y="1200.0" type="right_before_left" weight_num="4.0" weight_sum="1.18142548596" x="792.881404318" x_displacement_sum="-7.1185956825" y="1216.53590448" y_displacement_sum="16.5359044758" />
    <node avg_slowdown_ratio="0.29517638589" id="node_06x06" junction="True" old_x="600.0" old_y="600.0" type="right_before_left" weight_num="4.0" weight_sum="1.18070554356" x="602.602898542" x_displacement_sum="2.60289854191" y="605.564276206" y_displacement_sum="5.56427620622" />
    <node avg_slowdown_ratio="0.294456443485" id="node_09x13" junction="True" old_x="900.0" old_y="1300.0" type="right_before_left" weight_num="4.0" weight_sum="1.17782577394" x="888.521173664" x_displacement_sum="-11.4788263359" y="1306.35038162" y_displacement_sum="6.35038161608" />
    <node avg_slowdown_ratio="0.29373650108" id="node_15x08" junction="True" old_x="1500.0" old_y="800.0" type="right_before_left" weight_num="4.0" weight_sum="1.17494600432" x="1512.45045233" x_displacement_sum="12.4504523317" y="804.764931472" y_displacement_sum="4.76493147186" />
    <node avg_slowdown_ratio="0.29355651548" id="node_05x06" junction="True" old_x="500.0" old_y="600.0" type="right_before_left" weight_num="4.0" weight_sum="1.17422606192" x="477.756849225" x_displacement_sum="-22.243150775" y="603.762737756" y_displacement_sum="3.76273775615" />
    <node avg_slowdown_ratio="0.293196544275" id="node_12x11" junction="True" old_x="1200.0" old_y="1100.0" type="right_before_left" weight_num="4.0" weight_sum="1.1727861771" x="1213.90231891" x_displacement_sum="13.9023189105" y="1102.91490862" y_displacement_sum="2.91490861824" />
    <node avg_slowdown_ratio="0.292836573075" id="node_14x09" junction="True" old_x="1400.0" old_y="900.0" type="right_before_left" weight_num="4.0" weight_sum="1.1713462923" x="1403.00842133" x_displacement_sum="3.00842132748" y="905.180196052" y_displacement_sum="5.18019605187" />
    <node avg_slowdown_ratio="0.292656587473" id="node_11x15" junction="True" old_x="1100.0" old_y="1500.0" type="right_before_left" weight_num="4.0" weight_sum="1.17062634989" x="1098.96613839" x_displacement_sum="-1.03386161235" y="1523.07335755" y_displacement_sum="23.0733575491" />
    <node avg_slowdown_ratio="0.29229661627" id="node_08x08" junction="True" old_x="800.0" old_y="800.0" type="right_before_left" weight_num="4.0" weight_sum="1.16918646508" x="790.427464062" x_displacement_sum="-9.57253593755" y="798.068240931" y_displacement_sum="-1.93175906921" />
    <node avg_slowdown_ratio="0.29229661627" id="node_09x16" junction="True" old_x="900.0" old_y="1600.0" type="right_before_left" weight_num="4.0" weight_sum="1.16918646508" x="896.067544345" x_displacement_sum="-3.93245565549" y="1608.73005204" y_displacement_sum="8.73005204166" />
    <node avg_slowdown_ratio="0.29211663067" id="node_06x13" junction="True" old_x="600.0" old_y="1300.0" type="right_before_left" weight_num="4.0" weight_sum="1.16846652268" x="587.939962365" x_displacement_sum="-12.0600376348" y="1299.5474565" y_displacement_sum="-0.452543495194" />
    <node avg_slowdown_ratio="0.29211663067" id="node_15x10" junction="True" old_x="1500.0" old_y="1000.0" type="right_before_left" weight_num="4.0" weight_sum="1.16846652268" x="1510.86919287" x_displacement_sum="10.8691928679" y="1005.40047226" y_displacement_sum="5.40047226027" />
    <node avg_slowdown_ratio="0.291756659468" id="node_12x14" junction="True" old_x="1200.0" old_y="1400.0" type="right_before_left" weight_num="4.0" weight_sum="1.16702663787" x="1213.14239159" x_displacement_sum="13.1423915919" y="1404.29479006" y_displacement_sum="4.29479005865" />
    <node avg_slowdown_ratio="0.291396688265" id="node_15x06" junction="True" old_x="1500.0" old_y="600.0" type="right_before_left" weight_num="4.0" weight_sum="1.16558675306" x="1503.01553756" x_displacement_sum="3.01553756411" y="582.487682909" y_displacement_sum="-17.5123170907" />
    <node avg_slowdown_ratio="0.291216702665" id="node_11x13" junction="True" old_x="1100.0" old_y="1300.0" type="right_before_left" weight_num="4.0" weight_sum="1.16486681066" x="1113.94422903" x_displacement_sum="13.9442290292" y="1298.85945173" y_displacement_sum="-1.14054826529" />
    <node avg_slowdown_ratio="0.291036717063" id="node_09x08" junction="True" old_x="900.0" old_y="800.0" type="right_before_left" weight_num="4.0" weight_sum="1.16414686825" x="894.424322412" x_displacement_sum="-5.57567758822" y="805.618076479" y_displacement_sum="5.61807647917" />
    <node avg_slowdown_ratio="0.290856731463" id="node_14x12" junction="True" old_x="1400.0" old_y="1200.0" type="right_before_left" weight_num="4.0" weight_sum="1.16342692585" x="1398.40634666" x_displacement_sum="-1.5936533441" y="1201.11331777" y_displacement_sum="1.11331777407" />
    <node avg_slowdown_ratio="0.29049676026" id="node_10x07" junction="True" old_x="1000.0" old_y="700.0" type="right_before_left" weight_num="4.0" weight_sum="1.16198704104" x="1000.28725642" x_displacement_sum="0.287256421218" y="701.6215036" y_displacement_sum="1.62150359976" />
    <node avg_slowdown_ratio="0.29049676026" id="node_10x12" junction="True" old_x="1000.0" old_y="1200.0" type="right_before_left" weight_num="4.0" weight_sum="1.16198704104" x="1006.04087931" x_displacement_sum="6.04087931091" y="1200.42114908" y_displacement_sum="0.42114907963" />
    <node avg_slowdown_ratio="0.290316774657" id="node_08x04" junction="True" old_x="800.0" old_y="400.0" type="right_before_left" weight_num="4.0" weight_sum="1.16126709863" x="791.048000259" x_displacement_sum="-8.95199974128" y="376.235963074" y_displacement_sum="-23.7640369262" />
    <node avg_slowdown_ratio="0.290316774657" id="node_09x06" junction="True" old_x="900.0" old_y="600.0" type="right_before_left" weight_num="4.0" weight_sum="1.16126709863" x="905.895777024" x_displacement_sum="5.89577702437" y="601.439470954" y_displacement_sum="1.43947095436" />
    <node avg_slowdown_ratio="0.290136789058" id="node_07x06" junction="True" old_x="700.0" old_y="600.0" type="right_before_left" weight_num="4.0" weight_sum="1.16054715623" x="702.029556225" x_displacement_sum="2.02955622478" y="606.61208043" y_displacement_sum="6.61208042973" />
    <node avg_slowdown_ratio="0.290136789058" id="node_14x06" junction="True" old_x="1400.0" old_y="600.0" type="right_before_left" weight_num="4.0" weight_sum="1.16054715623" x="1396.58676214" x_displacement_sum="-3.41323785663" y="590.271892135" y_displacement_sum="-9.72810786537" />
    <node avg_slowdown_ratio="0.289776817855" id="node_14x08" junction="True" old_x="1400.0" old_y="800.0" type="right_before_left" weight_num="4.0" weight_sum="1.15910727142" x="1402.3375226" x_displacement_sum="2.33752259566" y="794.805695543" y_displacement_sum="-5.1943044574" />
    <node avg_slowdown_ratio="0.289596832252" id="node_16x07" junction="True" old_x="1600.0" old_y="700.0" type="right_before_left" weight_num="4.0" weight_sum="1.15838732901" x="1610.65081054" x_displacement_sum="10.6508105388" y="698.918724347" y_displacement_sum="-1.08127565274" />
    <node avg_slowdown_ratio="0.289596832252" id="node_17x12" junction="True" old_x="1700.0" old_y="1200.0" type="right_before_left" weight_num="4.0" weight_sum="1.15838732901" x="1708.65709883" x_displacement_sum="8.65709883156" y="1206.46764763" y_displacement_sum="6.46764763383" />
    <node avg_slowdown_ratio="0.28923686105" id="node_13x06" junction="True" old_x="1300.0" old_y="600.0" type="right_before_left" weight_num="4.0" weight_sum="1.1569474442" x="1320.33189852" x_displacement_sum="20.331898517" y="595.464903395" y_displacement_sum="-4.53509660548" />
    <node avg_slowdown_ratio="0.28887688985" id="node_11x11" junction="True" old_x="1100.0" old_y="1100.0" type="right_before_left" weight_num="4.0" weight_sum="1.1555075594" x="1102.98796317" x_displacement_sum="2.9879631665" y="1112.46127673" y_displacement_sum="12.4612767301" />
    <node avg_slowdown_ratio="0.288876889847" id="node_06x07" junction="True" old_x="600.0" old_y="700.0" type="right_before_left" weight_num="4.0" weight_sum="1.15550755939" x="594.384590492" x_displacement_sum="-5.61540950827" y="720.425671719" y_displacement_sum="20.4256717195" />
    <node avg_slowdown_ratio="0.288696904247" id="node_15x11" junction="True" old_x="1500.0" old_y="1100.0" type="right_before_left" weight_num="4.0" weight_sum="1.15478761699" x="1511.80634031" x_displacement_sum="11.8063403087" y="1100.02421488" y_displacement_sum="0.0242148759158" />
    <node avg_slowdown_ratio="0.288516918648" id="node_07x08" junction="True" old_x="700.0" old_y="800.0" type="right_before_left" weight_num="4.0" weight_sum="1.15406767459" x="691.643028883" x_displacement_sum="-8.35697111694" y="795.175467208" y_displacement_sum="-4.82453279183" />
    <node avg_slowdown_ratio="0.288516918648" id="node_08x09" junction="True" old_x="800.0" old_y="900.0" type="right_before_left" weight_num="4.0" weight_sum="1.15406767459" x="799.080076148" x_displacement_sum="-0.919923852252" y="901.027500102" y_displacement_sum="1.02750010243" />
    <node avg_slowdown_ratio="0.288156947445" id="node_03x12" junction="True" old_x="300.0" old_y="1200.0" type="right_before_left" weight_num="4.0" weight_sum="1.15262778978" x="296.587352773" x_displacement_sum="-3.41264722654" y="1202.33416122" y_displacement_sum="2.33416121898" />
    <node avg_slowdown_ratio="0.288156947445" id="node_11x10" junction="True" old_x="1100.0" old_y="1000.0" type="right_before_left" weight_num="4.0" weight_sum="1.15262778978" x="1103.74615625" x_displacement_sum="3.74615624512" y="986.684518892" y_displacement_sum="-13.3154811082" />
    <node avg_slowdown_ratio="0.287796976243" id="node_05x14" junction="True" old_x="500.0" old_y="1400.0" type="right_before_left" weight_num="4.0" weight_sum="1.15118790497" x="472.911305246" x_displacement_sum="-27.0886947542" y="1397.04636354" y_displacement_sum="-2.95363646453" />
    <node avg_slowdown_ratio="0.287796976243" id="node_07x09" junction="True" old_x="700.0" old_y="900.0" type="right_before_left" weight_num="4.0" weight_sum="1.15118790497" x="682.073174371" x_displacement_sum="-17.9268256287" y="893.735273832" y_displacement_sum="-6.26472616791" />
    <node avg_slowdown_ratio="0.287796976243" id="node_08x14" junction="True" old_x="800.0" old_y="1400.0" type="right_before_left" weight_num="4.0" weight_sum="1.15118790497" x="797.91197706" x_displacement_sum="-2.0880229404" y="1413.45458374" y_displacement_sum="13.4545837436" />
    <node avg_slowdown_ratio="0.28743700504" id="node_13x10" junction="True" old_x="1300.0" old_y="1000.0" type="right_before_left" weight_num="4.0" weight_sum="1.14974802016" x="1308.18421144" x_displacement_sum="8.18421144277" y="1004.90431049" y_displacement_sum="4.90431048526" />
    <node avg_slowdown_ratio="0.287257019437" id="node_08x13" junction="True" old_x="800.0" old_y="1300.0" type="right_before_left" weight_num="4.0" weight_sum="1.14902807775" x="800.904999182" x_displacement_sum="0.904999182238" y="1309.4941096" y_displacement_sum="9.4941095999" />
    <node avg_slowdown_ratio="0.287257019437" id="node_12x13" junction="True" old_x="1200.0" old_y="1300.0" type="right_before_left" weight_num="4.0" weight_sum="1.14902807775" x="1217.9729004" x_displacement_sum="17.9729004042" y="1305.69160431" y_displacement_sum="5.69160431064" />
    <node avg_slowdown_ratio="0.287257019437" id="node_17x09" junction="True" old_x="1700.0" old_y="900.0" type="right_before_left" weight_num="4.0" weight_sum="1.14902807775" x="1709.40338289" x_displacement_sum="9.40338288958" y="906.204833502" y_displacement_sum="6.20483350241" />
    <node avg_slowdown_ratio="0.286897048238" id="node_08x05" junction="True" old_x="800.0" old_y="500.0" type="right_before_left" weight_num="4.0" weight_sum="1.14758819295" x="796.210508507" x_displacement_sum="-3.78949149329" y="484.822429099" y_displacement_sum="-15.1775709013" />
    <node avg_slowdown_ratio="0.286717062635" id="node_05x12" junction="True" old_x="500.0" old_y="1200.0" type="right_before_left" weight_num="4.0" weight_sum="1.14686825054" x="479.841819911" x_displacement_sum="-20.1581800886" y="1198.3821064" y_displacement_sum="-1.6178936048" />
    <node avg_slowdown_ratio="0.286537077032" id="node_02x07" junction="True" old_x="200.0" old_y="700.0" type="right_before_left" weight_num="4.0" weight_sum="1.14614830813" x="194.060455884" x_displacement_sum="-5.93954411595" y="709.93806544" y_displacement_sum="9.93806543988" />
    <node avg_slowdown_ratio="0.286537077032" id="node_09x10" junction="True" old_x="900.0" old_y="1000.0" type="right_before_left" weight_num="4.0" weight_sum="1.14614830813" x="897.616348341" x_displacement_sum="-2.38365165861" y="978.091667821" y_displacement_sum="-21.9083321789" />
    <node avg_slowdown_ratio="0.286357091432" id="node_15x07" junction="True" old_x="1500.0" old_y="700.0" type="right_before_left" weight_num="4.0" weight_sum="1.14542836573" x="1513.84634937" x_displacement_sum="13.8463493738" y="701.558570474" y_displacement_sum="1.55857047443" />
    <node avg_slowdown_ratio="0.286177105833" id="node_09x14" junction="True" old_x="900.0" old_y="1400.0" type="right_before_left" weight_num="4.0" weight_sum="1.14470842333" x="882.089677222" x_displacement_sum="-17.910322778" y="1427.82661543" y_displacement_sum="27.8266154252" />
    <node avg_slowdown_ratio="0.286177105833" id="node_15x09" junction="True" old_x="1500.0" old_y="900.0" type="right_before_left" weight_num="4.0" weight_sum="1.14470842333" x="1513.65733953" x_displacement_sum="13.6573395316" y="902.060984206" y_displacement_sum="2.06098420587" />
    <node avg_slowdown_ratio="0.28599712023" id="node_14x14" junction="True" old_x="1400.0" old_y="1400.0" type="right_before_left" weight_num="4.0" weight_sum="1.14398848092" x="1406.14259384" x_displacement_sum="6.14259383726" y="1407.56246734" y_displacement_sum="7.56246734164" />
    <node avg_slowdown_ratio="0.28581713463" id="node_04x14" junction="True" old_x="400.0" old_y="1400.0" type="right_before_left" weight_num="4.0" weight_sum="1.14326853852" x="391.92056161" x_displacement_sum="-8.0794383904" y="1404.56936902" y_displacement_sum="4.56936901521" />
    <node avg_slowdown_ratio="0.285637149027" id="node_09x09" junction="True" old_x="900.0" old_y="900.0" type="right_before_left" weight_num="4.0" weight_sum="1.14254859611" x="892.202007311" x_displacement_sum="-7.79799268945" y="900.028428576" y_displacement_sum="0.0284285758764" />
    <node avg_slowdown_ratio="0.285457163427" id="node_13x12" junction="True" old_x="1300.0" old_y="1200.0" type="right_before_left" weight_num="4.0" weight_sum="1.14182865371" x="1305.10431058" x_displacement_sum="5.10431057645" y="1201.78448069" y_displacement_sum="1.78448068734" />
    <node avg_slowdown_ratio="0.285277177825" id="node_10x06" junction="True" old_x="1000.0" old_y="600.0" type="right_before_left" weight_num="4.0" weight_sum="1.1411087113" x="1008.57175062" x_displacement_sum="8.57175061581" y="589.341612203" y_displacement_sum="-10.6583877966" />
    <node avg_slowdown_ratio="0.284737221022" id="node_13x13" junction="True" old_x="1300.0" old_y="1300.0" type="right_before_left" weight_num="4.0" weight_sum="1.13894888409" x="1303.10856766" x_displacement_sum="3.10856766156" y="1301.46260007" y_displacement_sum="1.4626000662" />
    <node avg_slowdown_ratio="0.28455723542" id="node_07x10" junction="True" old_x="700.0" old_y="1000.0" type="right_before_left" weight_num="4.0" weight_sum="1.13822894168" x="684.882811277" x_displacement_sum="-15.1171887234" y="990.774262699" y_displacement_sum="-9.22573730099" />
    <node avg_slowdown_ratio="0.28437724982" id="node_14x10" junction="True" old_x="1400.0" old_y="1000.0" type="right_before_left" weight_num="4.0" weight_sum="1.13750899928" x="1397.93778889" x_displacement_sum="-2.06221110782" y="1010.31473086" y_displacement_sum="10.3147308552" />
    <node avg_slowdown_ratio="0.28437724982" id="node_14x11" junction="True" old_x="1400.0" old_y="1100.0" type="right_before_left" weight_num="4.0" weight_sum="1.13750899928" x="1397.04421308" x_displacement_sum="-2.95578692226" y="1104.15239543" y_displacement_sum="4.15239542672" />
    <node avg_slowdown_ratio="0.28419726422" id="node_12x12" junction="True" old_x="1200.0" old_y="1200.0" type="right_before_left" weight_num="4.0" weight_sum="1.13678905688" x="1215.01583003" x_displacement_sum="15.0158300341" y="1197.11112366" y_displacement_sum="-2.88887634164" />
    <node avg_slowdown_ratio="0.284197264218" id="node_05x04" junction="True" old_x="500.0" old_y="400.0" type="right_before_left" weight_num="4.0" weight_sum="1.13678905687" x="482.403370463" x_displacement_sum="-17.5966295368" y="384.304094144" y_displacement_sum="-15.6959058557" />
    <node avg_slowdown_ratio="0.283657307415" id="node_04x06" junction="True" old_x="400.0" old_y="600.0" type="right_before_left" weight_num="4.0" weight_sum="1.13462922966" x="386.866786261" x_displacement_sum="-13.1332137387" y="604.92664134" y_displacement_sum="4.92664134021" />
    <node avg_slowdown_ratio="0.283657307415" id="node_13x05" junction="True" old_x="1300.0" old_y="500.0" type="right_before_left" weight_num="4.0" weight_sum="1.13462922966" x="1327.30956366" x_displacement_sum="27.3095636555" y="490.964642572" y_displacement_sum="-9.03535742839" />
    <node avg_slowdown_ratio="0.283477321815" id="node_02x10" junction="True" old_x="200.0" old_y="1000.0" type="right_before_left" weight_num="4.0" weight_sum="1.13390928726" x="197.797945033" x_displacement_sum="-2.20205496714" y="993.90737318" y_displacement_sum="-6.09262682047" />
    <node avg_slowdown_ratio="0.283477321815" id="node_03x06" junction="True" old_x="300.0" old_y="600.0" type="right_before_left" weight_num="4.0" weight_sum="1.13390928726" x="302.519021785" x_displacement_sum="2.51902178497" y="593.601661769" y_displacement_sum="-6.39833823145" />
    <node avg_slowdown_ratio="0.283477321815" id="node_06x09" junction="True" old_x="600.0" old_y="900.0" type="right_before_left" weight_num="4.0" weight_sum="1.13390928726" x="586.735922287" x_displacement_sum="-13.2640777126" y="891.321280753" y_displacement_sum="-8.67871924724" />
    <node avg_slowdown_ratio="0.283477321815" id="node_15x05" junction="True" old_x="1500.0" old_y="500.0" type="right_before_left" weight_num="4.0" weight_sum="1.13390928726" x="1500.19553192" x_displacement_sum="0.195531924134" y="491.080564223" y_displacement_sum="-8.91943577719" />
    <node avg_slowdown_ratio="0.283477321815" id="node_17x08" junction="True" old_x="1700.0" old_y="800.0" type="right_before_left" weight_num="4.0" weight_sum="1.13390928726" x="1715.7278776" x_displacement_sum="15.7278775985" y="799.777095789" y_displacement_sum="-0.222904211372" />
    <node avg_slowdown_ratio="0.283297336212" id="node_07x04" junction="True" old_x="700.0" old_y="400.0" type="right_before_left" weight_num="4.0" weight_sum="1.13318934485" x="698.733067711" x_displacement_sum="-1.26693228904" y="377.981729316" y_displacement_sum="-22.0182706843" />
    <node avg_slowdown_ratio="0.283117350612" id="node_15x04" junction="True" old_x="1500.0" old_y="400.0" type="right_before_left" weight_num="4.0" weight_sum="1.13246940245" x="1497.61662655" x_displacement_sum="-2.38337344641" y="392.804317423" y_displacement_sum="-7.19568257664" />
    <node avg_slowdown_ratio="0.28293736501" id="node_16x09" junction="True" old_x="1600.0" old_y="900.0" type="right_before_left" weight_num="4.0" weight_sum="1.13174946004" x="1611.73404944" x_displacement_sum="11.7340494406" y="905.85459063" y_displacement_sum="5.85459063021" />
    <node avg_slowdown_ratio="0.282577393808" id="node_09x15" junction="True" old_x="900.0" old_y="1500.0" type="right_before_left" weight_num="4.0" weight_sum="1.13030957523" x="893.237057067" x_displacement_sum="-6.76294293279" y="1512.64746596" y_displacement_sum="12.6474659599" />