<?xml version='1.0' encoding='UTF-8'?>
<nodes xmlns:xsi="http://www.w3.org/2001/XMLSchema-instance" version="0.27" xsi:noNamespaceSchemaLocation="http://sumo.dlr.de/xsd/edges_file.xsd"><node avg_slowdown_ratio="0.687365010798" id="node_09x12" junction="True" old_x="900.0" old_y="1200.0" type="right_before_left" weight_num="4.0" weight_sum="2.74946004319" x="900.030657354" x_displacement_sum="0.0306573538127" y="1212.73883596" y_displacement_sum="12.7388359605" />
    <node avg_slowdown_ratio="0.6249100072" id="node_09x11" junction="True" old_x="900.0" old_y="1100.0" type="right_before_left" weight_num="4.0" weight_sum="2.4996400288" x="889.112102028" x_displacement_sum="-10.8878979724" y="1075.65708757" y_displacement_sum="-24.3429124324" />
    <node avg_slowdown_ratio="0.579553635707" id="node_11x08" junction="True" old_x="1100.0" old_y="800.0" type="right_before_left" weight_num="4.0" weight_sum="2.31821454283" x="1106.69551966" x_displacement_sum="6.69551965506" y="794.235280571" y_displacement_sum="-5.76471942861" />
    <node avg_slowdown_ratio="0.573794096473" id="node_11x09" junction="True" old_x="1100.0" old_y="900.0" type="right_before_left" weight_num="4.0" weight_sum="2.29517638589" x="1096.53673493" x_displacement_sum="-3.46326507291" y="908.891204284" y_displacement_sum="8.89120428363" />
    <node avg_slowdown_ratio="0.55651547876" id="node_10x11" junction="True" old_x="1000.0" old_y="1100.0" type="right_before_left" weight_num="4.0" weight_sum="2.22606191504" x="1036.34488735" x_displacement_sum="36.3448873534" y="1071.83101782" y_displacement_sum="-28.1689821799" />
    <node avg_slowdown_ratio="0.539956803455" id="node_09x13" junction="True" old_x="900.0" old_y="1300.0" type="right_before_left" weight_num="4.0" weight_sum="2.15982721382" x="893.191126137" x_displacement_sum="-6.80887386328" y="1327.41929427" y_displacement_sum="27.4192942749" />
    <node avg_slowdown_ratio="0.538336933045" id="node_08x12" junction="True" old_x="800.0" old_y="1200.0" type="right_before_left" weight_num="4.0" weight_sum="2.15334773218" x="762.998091565" x_displacement_sum="-37.0019084345" y="1214.04224639" y_displacement_sum="14.0422463908" />
    <node avg_slowdown_ratio="0.538156947445" id="node_10x12" junction="True" old_x="1000.0" old_y="1200.0" type="right_before_left" weight_num="4.0" weight_sum="2.15262778978" x="1037.10419132" x_displacement_sum="37.1041913153" y="1218.1212705" y_displacement_sum="18.1212705" />
    <node avg_slowdown_ratio="0.538156947445" id="node_11x07" junction="True" old_x="1100.0" old_y="700.0" type="right_before_left" weight_num="4.0" weight_sum="2.15262778978" x="1111.70058624" x_displacement_sum="11.7005862436" y="679.644528335" y_displacement_sum="-20.3554716647" />
    <node avg_slowdown_ratio="0.53599712023" id="node_07x09" junction="True" old_x="700.0" old_y="900.0" type="right_before_left" weight_num="4.0" weight_sum="2.14398848092" x="689.060532141" x_displacement_sum="-10.9394678587" y="905.420636293" y_displacement_sum="5.42063629322" />
    <node avg_slowdown_ratio="0.525377969762" id="node_06x11" junction="True" old_x="600.0" old_y="1100.0" type="right_before_left" weight_num="4.0" weight_sum="2.10151187905" x="592.070406521" x_displacement_sum="-7.92959347854" y="1097.9940976" y_displacement_sum="-2.0059024046" />
    <node avg_slowdown_ratio="0.52519798416" id="node_11x10" junction="True" old_x="1100.0" old_y="1000.0" type="right_before_left" weight_num="4.0" weight_sum="2.10079193664" x="1098.80950455" x_displacement_sum="-1.19049544592" y="1009.82501153" y_displacement_sum="9.82501152663" />
    <node avg_slowdown_ratio="0.522498200145" id="node_08x14" junction="True" old_x="800.0" old_y="1400.0" type="right_before_left" weight_num="4.0" weight_sum="2.08999280058" x="797.665422409" x_displacement_sum="-2.33457759133" y="1410.61367649" y_displacement_sum="10.613676485" />
    <node avg_slowdown_ratio="0.521598272137" id="node_08x08" junction="True" old_x="800.0" old_y="800.0" type="right_before_left" weight_num="4.0" weight_sum="2.08639308855" x="798.519897289" x_displacement_sum="-1.48010271143" y="794.79288816" y_displacement_sum="-5.20711184007" />
    <node avg_slowdown_ratio="0.519258459323" id="node_12x09" junction="True" old_x="1200.0" old_y="900.0" type="right_before_left" weight_num="4.0" weight_sum="2.07703383729" x="1219.0493663" x_displacement_sum="19.0493662961" y="899.731414107" y_displacement_sum="-0.268585893055" />
    <node avg_slowdown_ratio="0.516918646507" id="node_10x08" junction="True" old_x="1000.0" old_y="800.0" type="right_before_left" weight_num="4.0" weight_sum="2.06767458603" x="980.452833823" x_displacement_sum="-19.5471661771" y="797.089363142" y_displacement_sum="-2.91063685822" />
    <node avg_slowdown_ratio="0.516738660907" id="node_09x10" junction="True" old_x="900.0" old_y="1000.0" type="right_before_left" weight_num="4.0" weight_sum="2.06695464363" x="903.341853973" x_displacement_sum="3.34185397312" y="982.960585019" y_displacement_sum="-17.0394149807" />
    <node avg_slowdown_ratio="0.515478761697" id="node_09x09" junction="True" old_x="900.0" old_y="900.0" type="right_before_left" weight_num="4.0" weight_sum="2.06191504679" x="900.680651474" x_displacement_sum="0.680651473906" y="892.282703378" y_displacement_sum="-7.71729662209" />
    <node avg_slowdown_ratio="0.515118790495" id="node_11x11" junction="True" old_x="1100.0" old_y="1100.0" type="right_before_left" weight_num="4.0" weight_sum="2.06047516198" x="1108.86791509" x_displacement_sum="8.86791509085" y="1104.35261586" y_displacement_sum="4.35261586349" />
    <node avg_slowdown_ratio="0.511339092875" id="node_11x13" junction="True" old_x="1100.0" old_y="1300.0" type="right_before_left" weight_num="4.0" weight_sum="2.0453563715" x="1102.55189835" x_displacement_sum="2.55189835455" y="1313.31806111" y_displacement_sum="13.3180611136" />
    <node avg_slowdown_ratio="0.509179265658" id="node_10x13" junction="True" old_x="1000.0" old_y="1300.0" type="right_before_left" weight_num="4.0" weight_sum="2.03671706263" x="1024.29858389" x_displacement_sum="24.2985838873" y="1331.75593656" y_displacement_sum="31.7559365579" />
    <node avg_slowdown_ratio="0.506839452845" id="node_08x10" junction="True" old_x="800.0" old_y="1000.0" type="right_before_left" weight_num="4.0" weight_sum="2.02735781138" x="775.457787754" x_displacement_sum="-24.542212246" y="991.825518212" y_displacement_sum="-8.17448178797" />
    <node avg_slowdown_ratio="0.505579553637" id="node_12x11" junction="True" old_x="1200.0" old_y="1100.0" type="right_before_left" weight_num="4.0" weight_sum="2.02231821455" x="1213.0905853" x_displacement_sum="13.0905853005" y="1107.61719509" y_displacement_sum="7.61719508583" />
    <node avg_slowdown_ratio="0.504139668828" id="node_08x09" junction="True" old_x="800.0" old_y="900.0" type="right_before_left" weight_num="4.0" weight_sum="2.01655867531" x="803.625580205" x_displacement_sum="3.62558020521" y="902.696579309" y_displacement_sum="2.69657930887" />
    <node avg_slowdown_ratio="0.502699784018" id="node_13x13" junction="True" old_x="1300.0" old_y="1300.0" type="right_before_left" weight_num="4.0" weight_sum="2.01079913607" x="1305.52144663" x_displacement_sum="5.52144663013" y="1288.61911821" y_displacement_sum="-11.3808817853" />
    <node avg_slowdown_ratio="0.50197984161" id="node_07x12" junction="True" old_x="700.0" old_y="1200.0" type="right_before_left" weight_num="4.0" weight_sum="2.00791936644" x="689.792831344" x_displacement_sum="-10.2071686557" y="1201.73780613" y_displacement_sum="1.73780613269" />
    <node avg_slowdown_ratio="0.50143988481" id="node_11x12" junction="True" old_x="1100.0" old_y="1200.0" type="right_before_left" weight_num="4.0" weight_sum="2.00575953924" x="1115.35576971" x_displacement_sum="15.3557697149" y="1200.69253249" y_displacement_sum="0.692532494361" />
    <node avg_slowdown_ratio="0.500539956802" id="node_10x09" junction="True" old_x="1000.0" old_y="900.0" type="right_before_left" weight_num="4.0" weight_sum="2.00215982721" x="987.819014598" x_displacement_sum="-12.1809854024" y="907.617429208" y_displacement_sum="7.61742920792" />
    <node avg_slowdown_ratio="0.5001799856" id="node_09x14" junction="True" old_x="900.0" old_y="1400.0" type="right_before_left" weight_num="4.0" weight_sum="2.0007199424" x="909.786102971" x_displacement_sum="9.78610297095" y="1411.82559122" y_displacement_sum="11.8255912188" />
    <node avg_slowdown_ratio="0.498560115192" id="node_12x06" junction="True" old_x="1200.0" old_y="600.0" type="right_before_left" weight_num="4.0" weight_sum="1.99424046077" x="1206.41078613" x_displacement_sum="6.41078612804" y="591.134144022" y_displacement_sum="-8.86585597837" />
    <node avg_slowdown_ratio="0.497300215983" id="node_06x08" junction="True" old_x="600.0" old_y="800.0" type="right_before_left" weight_num="4.0" weight_sum="1.98920086393" x="591.76710578" x_displacement_sum="-8.23289422027" y="801.095922217" y_displacement_sum="1.09592221738" />
    <node avg_slowdown_ratio="0.495680345573" id="node_12x13" junction="True" old_x="1200.0" old_y="1300.0" type="right_before_left" weight_num="4.0" weight_sum="1.98272138229" x="1201.61167477" x_displacement_sum="1.61167477405" y="1293.85645791" y_displacement_sum="-6.14354208533" />
    <node avg_slowdown_ratio="0.49550035997" id="node_12x10" junction="True" old_x="1200.0" old_y="1000.0" type="right_before_left" weight_num="4.0" weight_sum="1.98200143988" x="1219.83190355" x_displacement_sum="19.8319035527" y="1003.93547722" y_displacement_sum="3.93547722025" />
    <node avg_slowdown_ratio="0.495320374372" id="node_14x11" junction="True" old_x="1400.0" old_y="1100.0" type="right_before_left" weight_num="4.0" weight_sum="1.98128149749" x="1400.07897977" x_displacement_sum="0.0789797706993" y="1088.37089802" y_displacement_sum="-11.6291019803" />
    <node avg_slowdown_ratio="0.494960403165" id="node_08x11" junction="True" old_x="800.0" old_y="1100.0" type="right_before_left" weight_num="4.0" weight_sum="1.97984161266" x="756.415206909" x_displacement_sum="-43.5847930908" y="1075.14221444" y_displacement_sum="-24.8577855606" />
    <node avg_slowdown_ratio="0.492800575955" id="node_10x07" junction="True" old_x="1000.0" old_y="700.0" type="right_before_left" weight_num="4.0" weight_sum="1.97120230382" x="983.637016145" x_displacement_sum="-16.3629838547" y="692.134871614" y_displacement_sum="-7.86512838573" />
    <node avg_slowdown_ratio="0.489380849532" id="node_10x10" junction="True" old_x="1000.0" old_y="1000.0" type="right_before_left" weight_num="4.0" weight_sum="1.95752339813" x="1006.98551135" x_displacement_sum="6.98551134793" y="981.680120437" y_displacement_sum="-18.3198795628" />
    <node avg_slowdown_ratio="0.488120950325" id="node_07x14" junction="True" old_x="700.0" old_y="1400.0" type="right_before_left" weight_num="4.0" weight_sum="1.9524838013" x="692.947877945" x_displacement_sum="-7.05212205476" y="1412.14198167" y_displacement_sum="12.1419816737" />
    <node avg_slowdown_ratio="0.488120950325" id="node_10x06" junction="True" old_x="1000.0" old_y="600.0" type="right_before_left" weight_num="4.0" weight_sum="1.9524838013" x="1000.15087735" x_displacement_sum="0.150877345522" y="584.925646721" y_displacement_sum="-15.074353279" />
    <node avg_slowdown_ratio="0.487940964722" id="node_12x14" junction="True" old_x="1200.0" old_y="1400.0" type="right_before_left" weight_num="4.0" weight_sum="1.95176385889" x="1190.97846127" x_displacement_sum="-9.02153873432" y="1418.43417118" y_displacement_sum="18.4341711786" />
    <node avg_slowdown_ratio="0.48740100792" id="node_14x12" junction="True" old_x="1400.0" old_y="1200.0" type="right_before_left" weight_num="4.0" weight_sum="1.94960403168" x="1393.15265116" x_displacement_sum="-6.84734883962" y="1205.45202963" y_displacement_sum="5.45202962633" />
    <node avg_slowdown_ratio="0.485061195105" id="node_06x14" junction="True" old_x="600.0" old_y="1400.0" type="right_before_left" weight_num="4.0" weight_sum="1.94024478042" x="592.183617637" x_displacement_sum="-7.81638236284" y="1407.95433898" y_displacement_sum="7.95433897856" />
    <node avg_slowdown_ratio="0.483081353492" id="node_06x12" junction="True" old_x="600.0" old_y="1200.0" type="right_before_left" weight_num="4.0" weight_sum="1.93232541397" x="581.3639597" x_displacement_sum="-18.6360403" y="1215.96525207" y_displacement_sum="15.9652520736" />
    <node avg_slowdown_ratio="0.481821454283" id="node_12x08" junction="True" old_x="1200.0" old_y="800.0" type="right_before_left" weight_num="4.0" weight_sum="1.92728581713" x="1221.17693409" x_displacement_sum="21.1769340867" y="781.925511825" y_displacement_sum="-18.0744881747" />
    <node avg_slowdown_ratio="0.47966162707" id="node_13x09" junction="True" old_x="1300.0" old_y="900.0" type="right_before_left" weight_num="4.0" weight_sum="1.91864650828" x="1314.71347733" x_displacement_sum="14.7134773294" y="907.54617375" y_displacement_sum="7.54617374955" />
    <node avg_slowdown_ratio="0.479481641467" id="node_13x14" junction="True" old_x="1300.0" old_y="1400.0" type="right_before_left" weight_num="4.0" weight_sum="1.91792656587" x="1304.61569345" x_displacement_sum="4.6156934504" y="1418.51269672" y_displacement_sum="18.5126967196" />
    <node avg_slowdown_ratio="0.477501799855" id="node_07x11" junction="True" old_x="700.0" old_y="1100.0" type="right_before_left" weight_num="4.0" weight_sum="1.91000719942" x="705.624325611" x_displacement_sum="5.62432561123" y="1088.11678376" y_displacement_sum="-11.8832162438" />
    <node avg_slowdown_ratio="0.477501799855" id="node_08x07" junction="True" old_x="800.0" old_y="700.0" type="right_before_left" weight_num="4.0" weight_sum="1.91000719942" x="790.81792783" x_displacement_sum="-9.18207217024" y="691.55389446" y_displacement_sum="-8.44610554011" />
    <node avg_slowdown_ratio="0.477321814255" id="node_08x06" junction="True" old_x="800.0" old_y="600.0" type="right_before_left" weight_num="4.0" weight_sum="1.90928725702" x="794.21233644" x_displacement_sum="-5.78766356038" y="585.118371137" y_displacement_sum="-14.8816288628" />
    <node avg_slowdown_ratio="0.47660187185" id="node_09x08" junction="True" old_x="900.0" old_y="800.0" type="right_before_left" weight_num="4.0" weight_sum="1.9064074874" x="900.842538218" x_displacement_sum="0.842538217723" y="790.053282119" y_displacement_sum="-9.94671788091" />
    <node avg_slowdown_ratio="0.47642188625" id="node_09x15" junction="True" old_x="900.0" old_y="1500.0" type="right_before_left" weight_num="4.0" weight_sum="1.905687545" x="904.310535252" x_displacement_sum="4.31053525164" y="1519.99876681" y_displacement_sum="19.9987668118" />
    <node avg_slowdown_ratio="0.474262059035" id="node_08x13" junction="True" old_x="800.0" old_y="1300.0" type="right_before_left" weight_num="4.0" weight_sum="1.89704823614" x="767.416236737" x_displacement_sum="-32.583763263" y="1322.00049094" y_displacement_sum="22.0004909407" />
    <node avg_slowdown_ratio="0.473182145427" id="node_06x10" junction="True" old_x="600.0" old_y="1000.0" type="right_before_left" weight_num="4.0" weight_sum="1.89272858171" x="598.951357958" x_displacement_sum="-1.048642042" y="985.185901361" y_displacement_sum="-14.8140986387" />
    <node avg_slowdown_ratio="0.471562275017" id="node_10x14" junction="True" old_x="1000.0" old_y="1400.0" type="right_before_left" weight_num="4.0" weight_sum="1.88624910007" x="1013.07878153" x_displacement_sum="13.0787815348" y="1421.7330856" y_displacement_sum="21.7330855999" />
    <node avg_slowdown_ratio="0.469402447805" id="node_07x08" junction="True" old_x="700.0" old_y="800.0" type="right_before_left" weight_num="4.0" weight_sum="1.87760979122" x="695.498252087" x_displacement_sum="-4.50174791337" y="777.245629744" y_displacement_sum="-22.7543702563" />
    <node avg_slowdown_ratio="0.469042476602" id="node_07x13" junction="True" old_x="700.0" old_y="1300.0" type="right_before_left" weight_num="4.0" weight_sum="1.87616990641" x="693.777143309" x_displacement_sum="-6.22285669083" y="1302.67614005" y_displacement_sum="2.67614005093" />
    <node avg_slowdown_ratio="0.4686825054" id="node_13x08" junction="True" old_x="1300.0" old_y="800.0" type="right_before_left" weight_num="4.0" weight_sum="1.8747300216" x="1305.1202137" x_displacement_sum="5.12021370143" y="795.12058394" y_displacement_sum="-4.87941606009" />
    <node avg_slowdown_ratio="0.468142548595" id="node_14x13" junction="True" old_x="1400.0" old_y="1300.0" type="right_before_left" weight_num="4.0" weight_sum="1.87257019438" x="1409.53327307" x_displacement_sum="9.53327307228" y="1304.509209" y_displacement_sum="4.5092090025" />
    <node avg_slowdown_ratio="0.466522678185" id="node_09x06" junction="True" old_x="900.0" old_y="600.0" type="right_before_left" weight_num="4.0" weight_sum="1.86609071274" x="897.84002692" x_displacement_sum="-2.15997308031" y="588.022002569" y_displacement_sum="-11.9779974306" />
    <node avg_slowdown_ratio="0.46580273578" id="node_11x06" junction="True" old_x="1100.0" old_y="600.0" type="right_before_left" weight_num="4.0" weight_sum="1.86321094312" x="1097.97434528" x_displacement_sum="-2.02565471713" y="580.608091219" y_displacement_sum="-19.3919087811" />
    <node avg_slowdown_ratio="0.465262778978" id="node_14x14" junction="True" old_x="1400.0" old_y="1400.0" type="right_before_left" weight_num="4.0" weight_sum="1.86105111591" x="1413.4180577" x_displacement_sum="13.418057698" y="1411.69506954" y_displacement_sum="11.6950695379" />
    <node avg_slowdown_ratio="0.464722822175" id="node_09x07" junction="True" old_x="900.0" old_y="700.0" type="right_before_left" weight_num="4.0" weight_sum="1.8588912887" x="896.96102482" x_displacement_sum="-3.03897517957" y="697.919420186" y_displacement_sum="-2.08057981366" />
    <node avg_slowdown_ratio="0.458063354932" id="node_12x12" junction="True" old_x="1200.0" old_y="1200.0" type="right_before_left" weight_num="4.0" weight_sum="1.83225341973" x="1215.67740416" x_displacement_sum="15.6774041646" y="1201.88107714" y_displacement_sum="1.88107714435" />
    <node avg_slowdown_ratio="0.45770338373" id="node_15x12" junction="True" old_x="1500.0" old_y="1200.0" type="right_before_left" weight_num="4.0" weight_sum="1.83081353492" x="1514.01686386" x_displacement_sum="14.0168638573" y="1198.66791527" y_displacement_sum="-1.3320847305" />
    <node avg_slowdown_ratio="0.457163426928" id="node_14x08" junction="True" old_x="1400.0" old_y="800.0" type="right_before_left" weight_num="4.0" weight_sum="1.82865370771" x="1415.71479053" x_displacement_sum="15.7147905271" y="796.869277662" y_displacement_sum="-3.1307223381" />
    <node avg_slowdown_ratio="0.45626349892" id="node_13x07" junction="True" old_x="1300.0" old_y="700.0" type="right_before_left" weight_num="4.0" weight_sum="1.82505399568" x="1301.19286316" x_displacement_sum="1.19286316437" y="692.987524622" y_displacement_sum="-7.01247537764" />
    <node avg_slowdown_ratio="0.455543556518" id="node_15x13" junction="True" old_x="1500.0" old_y="1300.0" type="right_before_left" weight_num="4.0" weight_sum="1.82217422607" x="1515.60234316" x_displacement_sum="15.6023431584" y="1308.88452475" y_displacement_sum="8.88452475226" />
    <node avg_slowdown_ratio="0.455363570915" id="node_06x07" junction="True" old_x="600.0" old_y="700.0" type="right_before_left" weight_num="4.0" weight_sum="1.82145428366" x="594.295857004" x_displacement_sum="-5.70414299646" y="678.726575671" y_displacement_sum="-21.273424329" />
    <node avg_slowdown_ratio="0.452843772498" id="node_15x10" junction="True" old_x="1500.0" old_y="1000.0" type="right_before_left" weight_num="4.0" weight_sum="1.81137508999" x="1500.33121167" x_displacement_sum="0.331211669963" y="991.919802094" y_displacement_sum="-8.08019790559" />
    <node avg_slowdown_ratio="0.452123830095" id="node_16x09" junction="True" old_x="1600.0" old_y="900.0" type="right_before_left" weight_num="4.0" weight_sum="1.80849532038" x="1603.5176098" x_displacement_sum="3.51760980301" y="892.45136085" y_displacement_sum="-7.54863915008" />
    <node avg_slowdown_ratio="0.450503959683" id="node_05x14" junction="True" old_x="500.0" old_y="1400.0" type="right_before_left" weight_num="4.0" weight_sum="1.80201583873" x="480.954378659" x_displacement_sum="-19.045621341" y="1409.71212727" y_displacement_sum="9.71212727407" />
    <node avg_slowdown_ratio="0.450323974083" id="node_06x09" junction="True" old_x="600.0" old_y="900.0" type="right_before_left" weight_num="4.0" weight_sum="1.80129589633" x="574.055862401" x_displacement_sum="-25.9441375993" y="904.790029" y_displacement_sum="4.7900290001" />
    <node avg_slowdown_ratio="0.44978401728" id="node_13x11" junction="True" old_x="1300.0" old_y="1100.0" type="right_before_left" weight_num="4.0" weight_sum="1.79913606912" x="1301.95049415" x_displacement_sum="1.95049414805" y="1101.62126815" y_displacement_sum="1.62126814707" />
    <node avg_slowdown_ratio="0.449424046075" id="node_15x11" junction="True" old_x="1500.0" old_y="1100.0" type="right_before_left" weight_num="4.0" weight_sum="1.7976961843" x="1521.05437278" x_displacement_sum="21.0543727847" y="1098.95027558" y_displacement_sum="-1.04972442361" />
    <node avg_slowdown_ratio="0.445824334052" id="node_14x09" junction="True" old_x="1400.0" old_y="900.0" type="right_before_left" weight_num="4.0" weight_sum="1.78329733621" x="1414.44694235" x_displacement_sum="14.4469423509" y="905.398905691" y_displacement_sum="5.39890569056" />
    <node avg_slowdown_ratio="0.445464362853" id="node_05x13" junction="True" old_x="500.0" old_y="1300.0" type="right_before_left" weight_num="4.0" weight_sum="1.78185745141" x="489.356042411" x_displacement_sum="-10.6439575889" y="1291.85648211" y_displacement_sum="-8.1435178863" />
    <node avg_slowdown_ratio="0.44510439165" id="node_06x13" junction="True" old_x="600.0" old_y="1300.0" type="right_before_left" weight_num="4.0" weight_sum="1.7804175666" x="594.934214658" x_displacement_sum="-5.06578534244" y="1299.60553223" y_displacement_sum="-0.39446776515" />
    <node avg_slowdown_ratio="0.444204463642" id="node_07x10" junction="True" old_x="700.0" old_y="1000.0" type="right_before_left" weight_num="4.0" weight_sum="1.77681785457" x="693.404802395" x_displacement_sum="-6.5951976046" y="1010.93104621" y_displacement_sum="10.9310462104" />
    <node avg_slowdown_ratio="0.44042476602" id="node_05x11" junction="True" old_x="500.0" old_y="1100.0" type="right_before_left" weight_num="4.0" weight_sum="1.76169906408" x="480.105819428" x_displacement_sum="-19.8941805721" y="1105.70418201" y_displacement_sum="5.7041820142" />
    <node avg_slowdown_ratio="0.439884809215" id="node_07x06" junction="True" old_x="700.0" old_y="600.0" type="right_before_left" weight_num="4.0" weight_sum="1.75953923686" x="682.670933298" x_displacement_sum="-17.3290667023" y="602.752266428" y_displacement_sum="2.7522664278" />
    <node avg_slowdown_ratio="0.439704823615" id="node_11x05" junction="True" old_x="1100.0" old_y="500.0" type="right_before_left" weight_num="4.0" weight_sum="1.75881929446" x="1105.49208894" x_displacement_sum="5.49208894299" y="485.586379002" y_displacement_sum="-14.4136209985" />
    <node avg_slowdown_ratio="0.439524838012" id="node_05x10" junction="True" old_x="500.0" old_y="1000.0" type="right_before_left" weight_num="4.0" weight_sum="1.75809935205" x="483.354748829" x_displacement_sum="-16.6452511713" y="992.91650209" y_displacement_sum="-7.08349791031" />
    <node avg_slowdown_ratio="0.4373650108" id="node_11x14" junction="True" old_x="1100.0" old_y="1400.0" type="right_before_left" weight_num="4.0" weight_sum="1.7494600432" x="1096.69620318" x_displacement_sum="-3.30379682335" y="1420.68748148" y_displacement_sum="20.6874814764" />
    <node avg_slowdown_ratio="0.4371850252" id="node_12x07" junction="True" old_x="1200.0" old_y="700.0" type="right_before_left" weight_num="4.0" weight_sum="1.7487401008" x="1218.16406293" x_displacement_sum="18.1640629276" y="700.856045986" y_displacement_sum="0.856045986455" />
    <node avg_slowdown_ratio="0.436465082795" id="node_13x06" junction="True" old_x="1300.0" old_y="600.0" type="right_before_left" weight_num="4.0" weight_sum="1.74586033118" x="1314.29399495" x_displacement_sum="14.2939949476" y="589.691982768" y_displacement_sum="-10.3080172323" />
    <node avg_slowdown_ratio="0.435385169187" id="node_07x05" junction="True" old_x="700.0" old_y="500.0" type="right_before_left" weight_num="4.0" weight_sum="1.74154067675" x="698.410438864" x_displacement_sum="-1.58956113584" y="490.523684937" y_displacement_sum="-9.47631506262" />
    <node avg_slowdown_ratio="0.43412526998" id="node_13x10" junction="True" old_x="1300.0" old_y="1000.0" type="right_before_left" weight_num="4.0" weight_sum="1.73650107992" x="1313.20923943" x_displacement_sum="13.2092394287" y="1006.28776467" y_displacement_sum="6.28776467463" />
    <node avg_slowdown_ratio="0.43286537077" id="node_14x10" junction="True" old_x="1400.0" old_y="1000.0" type="right_before_left" weight_num="4.0" weight_sum="1.73146148308" x="1395.82364373" x_displacement_sum="-4.17635626895" y="989.749342367" y_displacement_sum="-10.2506576326" />
    <node avg_slowdown_ratio="0.431965442765" id="node_14x07" junction="True" old_x="1400.0" old_y="700.0" type="right_before_left" weight_num="4.0" weight_sum="1.72786177106" x="1413.08513609" x_displacement_sum="13.0851360938" y="694.103798884" y_displacement_sum="-5.89620111611" />
    <node avg_slowdown_ratio="0.431785457165" id="node_05x08" junction="True" old_x="500.0" old_y="800.0" type="right_before_left" weight_num="4.0" weight_sum="1.72714182866" x="478.564719829" x_displacement_sum="-21.4352801714" y="797.485624346" y_displacement_sum="-2.51437565355" />
    <node avg_slowdown_ratio="0.431425485963" id="node_16x10" junction="True" old_x="1600.0" old_y="1000.0" type="right_before_left" weight_num="4.0" weight_sum="1.72570194385" x="1612.34497305" x_displacement_sum="12.3449730465" y="1012.18825817" y_displacement_sum="12.1882581694" />
    <node avg_slowdown_ratio="0.430705543555" id="node_14x06" junction="True" old_x="1400.0" old_y="600.0" type="right_before_left" weight_num="4.0" weight_sum="1.72282217422" x="1406.1002776" x_displacement_sum="6.10027760495" y="592.327007186" y_displacement_sum="-7.672992814" />
    <node avg_slowdown_ratio="0.427825773937" id="node_04x11" junction="True" old_x="400.0" old_y="1100.0" type="right_before_left" weight_num="4.0" weight_sum="1.71130309575" x="391.012205094" x_displacement_sum="-8.98779490566" y="1100.0" y_displacement_sum="0.0" />
    <node avg_slowdown_ratio="0.427105831532" id="node_13x12" junction="True" old_x="1300.0" old_y="1200.0" type="right_before_left" weight_num="4.0" weight_sum="1.70842332613" x="1293.96294236" x_displacement_sum="-6.03705763743" y="1189.21362197" y_displacement_sum="-10.7863780321" />
    <node avg_slowdown_ratio="0.425845932325" id="node_08x15" junction="True" old_x="800.0" old_y="1500.0" type="right_before_left" weight_num="4.0" weight_sum="1.7033837293" x="786.339758387" x_displacement_sum="-13.660241613" y="1526.0977434" y_displacement_sum="26.0977433958" />
    <node avg_slowdown_ratio="0.42350611951" id="node_07x07" junction="True" old_x="700.0" old_y="700.0" type="right_before_left" weight_num="4.0" weight_sum="1.69402447804" x="695.363566199" x_displacement_sum="-4.63643380124" y="693.611859337" y_displacement_sum="-6.38814066268" />
    <node avg_slowdown_ratio="0.422606191505" id="node_10x05" junction="True" old_x="1000.0" old_y="500.0" type="right_before_left" weight_num="4.0" weight_sum="1.69042476602" x="993.472461639" x_displacement_sum="-6.52753836057" y="482.687913728" y_displacement_sum="-17.3120862718" />
    <node avg_slowdown_ratio="0.422606191505" id="node_16x12" junction="True" old_x="1600.0" old_y="1200.0" type="right_before_left" weight_num="4.0" weight_sum="1.69042476602" x="1613.39469747" x_displacement_sum="13.3946974701" y="1200.0" y_displacement_sum="0.0" />
    <node avg_slowdown_ratio="0.4218862491" id="node_16x14" junction="True" old_x="1600.0" old_y="1400.0" type="right_before_left" weight_num="4.0" weight_sum="1.6875449964" x="1604.51017272" x_displacement_sum="4.51017271784" y="1400.0" y_displacement_sum="0.0" />
    <node avg_slowdown_ratio="0.418466522678" id="node_15x14" junction="True" old_x="1500.0" old_y="1400.0" type="right_before_left" weight_num="4.0" weight_sum="1.67386609071" x="1509.67765935" x_displacement_sum="9.67765934582" y="1412.92989244" y_displacement_sum="12.9298924391" />
    <node avg_slowdown_ratio="0.416126709862" id="node_13x15" junction="True" old_x="1300.0" old_y="1500.0" type="right_before_left" weight_num="4.0" weight_sum="1.66450683945" x="1298.78234499" x_displacement_sum="-1.21765501061" y="1517.92823042" y_displacement_sum="17.9282304158" />
    <node avg_slowdown_ratio="0.415946724263" id="node_14x15" junction="True" old_x="1400.0" old_y="1500.0" type="right_before_left" weight_num="4.0" weight_sum="1.66378689705" x="1403.95046879" x_displacement_sum="3.95046879179" y="1514.9997438" y_displacement_sum="14.9997437978" />
    <node avg_slowdown_ratio="0.415046796258" id="node_05x12" junction="True" old_x="500.0" old_y="1200.0" type="right_before_left" weight_num="4.0" weight_sum="1.66018718503" x="481.348846424" x_displacement_sum="-18.6511535759" y="1198.873998" y_displacement_sum="-1.12600200344" />
    <node avg_slowdown_ratio="0.414866810655" id="node_07x15" junction="True" old_x="700.0" old_y="1500.0" type="right_before_left" weight_num="4.0" weight_sum="1.65946724262" x="696.436480816" x_displacement_sum="-3.56351918441" y="1519.65089562" y_displacement_sum="19.650895625" />