<?xml version='1.0' encoding='UTF-8'?>
<edges xmlns:xsi="http://www.w3.org/2001/XMLSchema-instance" version="0.27" xsi:noNamespaceSchemaLocation="http://sumo.dlr.de/xsd/edges_file.xsd"><edge disallow="tram rail_urban rail rail_electric ship" dump_speed="8.93" from="node_11x13" id="yedge_13x21" len="100.0" numLanes="1" priority="5" slowdown="4.96" slowdown_ratio="0.357091432685" speed="13.89" to="node_10x13" type="highway.undefined" />
    <edge disallow="tram rail_urban rail rail_electric ship" dump_speed="8.94" from="node_12x09" id="xedge_12x18" len="100.0" numLanes="1" priority="5" slowdown="4.95" slowdown_ratio="0.356371490281" speed="13.89" to="node_12x10" type="highway.undefined" />
    <edge disallow="tram rail_urban rail rail_electric ship" dump_speed="8.96" from="node_12x04" id="xedge_12x08" len="100.0" numLanes="1" priority="5" slowdown="4.93" slowdown_ratio="0.354931605472" speed="13.89" to="node_12x05" type="highway.undefined" />
    <edge disallow="tram rail_urban rail rail_electric ship" dump_speed="9.08" from="node_09x20" id="xedge_09x39" len="100.0" numLanes="1" priority="5" slowdown="4.81" slowdown_ratio="0.346292296616" speed="13.89" to="node_09x19" type="highway.undefined" />
    <edge disallow="tram rail_urban rail rail_electric ship" dump_speed="9.09" from="node_09x06" id="xedge_09x11" len="100.0" numLanes="1" priority="5" slowdown="4.8" slowdown_ratio="0.345572354212" speed="13.89" to="node_09x05" type="highway.undefined" />
    <edge disallow="tram rail_urban rail rail_electric ship" dump_speed="9.17" from="node_18x13" id="yedge_13x36" len="100.0" numLanes="1" priority="5" slowdown="4.72" slowdown_ratio="0.339812814975" speed="13.89" to="node_19x13" type="highway.undefined" />
    <edge disallow="tram rail_urban rail rail_electric ship" dump_speed="9.21" from="node_13x17" id="xedge_13x34" len="100.0" numLanes="1" priority="5" slowdown="4.68" slowdown_ratio="0.336933045356" speed="13.89" to="node_13x18" type="highway.undefined" />
    <edge disallow="tram rail_urban rail rail_electric ship" dump_speed="9.22" from="node_14x00" id="xedge_14x00" len="100.0" numLanes="1" priority="5" slowdown="4.67" slowdown_ratio="0.336213102952" speed="13.89" to="node_14x01" type="highway.undefined" />
    <edge disallow="tram rail_urban rail rail_electric ship" dump_speed="9.22" from="node_18x10" id="yedge_10x36" len="100.0" numLanes="1" priority="5" slowdown="4.67" slowdown_ratio="0.336213102952" speed="13.89" to="node_19x10" type="highway.undefined" />
    <edge disallow="tram rail_urban rail rail_electric ship" dump_speed="9.24" from="node_10x07" id="xedge_10x14" len="100.0" numLanes="1" priority="5" slowdown="4.65" slowdown_ratio="0.334773218143" speed="13.89" to="node_10x08" type="highway.undefined" />
    <edge disallow="tram rail_urban rail rail_electric ship" dump_speed="9.24" from="node_11x05" id="yedge_05x22" len="100.0" numLanes="1" priority="5" slowdown="4.65" slowdown_ratio="0.334773218143" speed="13.89" to="node_12x05" type="highway.undefined" />
    <edge disallow="tram rail_urban rail rail_electric ship" dump_speed="9.24" from="node_11x10" id="yedge_10x22" len="100.0" numLanes="1" priority="5" slowdown="4.65" slowdown_ratio="0.334773218143" speed="13.89" to="node_12x10" type="highway.undefined" />
    <edge disallow="tram rail_urban rail rail_electric ship" dump_speed="9.25" from="node_12x07" id="xedge_12x13" len="100.0" numLanes="1" priority="5" slowdown="4.64" slowdown_ratio="0.334053275738" speed="13.89" to="node_12x06" type="highway.undefined" />
    <edge disallow="tram rail_urban rail rail_electric ship" dump_speed="9.25" from="node_14x08" id="yedge_08x28" len="100.0" numLanes="1" priority="5" slowdown="4.64" slowdown_ratio="0.334053275738" speed="13.89" to="node_15x08" type="highway.undefined" />
    <edge disallow="tram rail_urban rail rail_electric ship" dump_speed="9.26" from="node_09x11" id="yedge_11x17" len="100.0" numLanes="1" priority="5" slowdown="4.63" slowdown_ratio="0.333333333333" speed="13.89" to="node_08x11" type="highway.undefined" />
    <edge disallow="tram rail_urban rail rail_electric ship" dump_speed="9.27" from="node_15x09" id="yedge_09x29" len="100.0" numLanes="1" priority="5" slowdown="4.62" slowdown_ratio="0.332613390929" speed="13.89" to="node_14x09" type="highway.undefined" />
    <edge disallow="tram rail_urban rail rail_electric ship" dump_speed="9.28" from="node_11x11" id="xedge_11x22" len="100.0" numLanes="1" priority="5" slowdown="4.61" slowdown_ratio="0.331893448524" speed="13.89" to="node_11x12" type="highway.undefined" />
    <edge disallow="tram rail_urban rail rail_electric ship" dump_speed="9.29" from="node_03x10" id="yedge_10x05" len="100.0" numLanes="1" priority="5" slowdown="4.6" slowdown_ratio="0.33117350612" speed="13.89" to="node_02x10" type="highway.undefined" />
    <edge disallow="tram rail_urban rail rail_electric ship" dump_speed="9.3" from="node_10x09" id="xedge_10x17" len="100.0" numLanes="1" priority="5" slowdown="4.59" slowdown_ratio="0.330453563715" speed="13.89" to="node_10x08" type="highway.undefined" />
    <edge disallow="tram rail_urban rail rail_electric ship" dump_speed="9.3" from="node_07x06" id="yedge_06x14" len="100.0" numLanes="1" priority="5" slowdown="4.59" slowdown_ratio="0.330453563715" speed="13.89" to="node_08x06" type="highway.undefined" />
    <edge disallow="tram rail_urban rail rail_electric ship" dump_speed="9.3" from="node_10x06" id="yedge_06x20" len="100.0" numLanes="1" priority="5" slowdown="4.59" slowdown_ratio="0.330453563715" speed="13.89" to="node_11x06" type="highway.undefined" />
    <edge disallow="tram rail_urban rail rail_electric ship" dump_speed="9.3" from="node_10x07" id="yedge_07x20" len="100.0" numLanes="1" priority="5" slowdown="4.59" slowdown_ratio="0.330453563715" speed="13.89" to="node_11x07" type="highway.undefined" />
    <edge disallow="tram rail_urban rail rail_electric ship" dump_speed="9.3" from="node_06x11" id="yedge_11x12" len="100.0" numLanes="1" priority="5" slowdown="4.59" slowdown_ratio="0.330453563715" speed="13.89" to="node_07x11" type="highway.undefined" />
    <edge disallow="tram rail_urban rail rail_electric ship" dump_speed="9.31" from="node_06x06" id="xedge_06x11" len="100.0" numLanes="1" priority="5" slowdown="4.58" slowdown_ratio="0.32973362131" speed="13.89" to="node_06x05" type="highway.undefined" />
    <edge disallow="tram rail_urban rail rail_electric ship" dump_speed="9.33" from="node_16x05" id="yedge_05x32" len="100.0" numLanes="1" priority="5" slowdown="4.56" slowdown_ratio="0.328293736501" speed="13.89" to="node_17x05" type="highway.undefined" />
    <edge disallow="tram rail_urban rail rail_electric ship" dump_speed="9.34" from="node_10x12" id="xedge_10x23" len="100.0" numLanes="1" priority="5" slowdown="4.55" slowdown_ratio="0.327573794096" speed="13.89" to="node_10x11" type="highway.undefined" />
    <edge disallow="tram rail_urban rail rail_electric ship" dump_speed="9.35" from="node_10x12" id="yedge_12x20" len="100.0" numLanes="1" priority="5" slowdown="4.54" slowdown_ratio="0.326853851692" speed="13.89" to="node_11x12" type="highway.undefined" />
    <edge disallow="tram rail_urban rail rail_electric ship" dump_speed="9.36" from="node_09x10" id="yedge_10x18" len="100.0" numLanes="1" priority="5" slowdown="4.53" slowdown_ratio="0.326133909287" speed="13.89" to="node_10x10" type="highway.undefined" />
    <edge disallow="tram rail_urban rail rail_electric ship" dump_speed="9.36" from="node_09x13" id="yedge_13x18" len="100.0" numLanes="1" priority="5" slowdown="4.53" slowdown_ratio="0.326133909287" speed="13.89" to="node_10x13" type="highway.undefined" />
    <edge disallow="tram rail_urban rail rail_electric ship" dump_speed="9.37" from="node_09x10" id="yedge_10x17" len="100.0" numLanes="1" priority="5" slowdown="4.52" slowdown_ratio="0.325413966883" speed="13.89" to="node_08x10" type="highway.undefined" />
    <edge disallow="tram rail_urban rail rail_electric ship" dump_speed="9.37" from="node_10x12" id="yedge_12x19" len="100.0" numLanes="1" priority="5" slowdown="4.52" slowdown_ratio="0.325413966883" speed="13.89" to="node_09x12" type="highway.undefined" />
    <edge disallow="tram rail_urban rail rail_electric ship" dump_speed="9.38" from="node_04x12" id="yedge_12x07" len="100.0" numLanes="1" priority="5" slowdown="4.51" slowdown_ratio="0.324694024478" speed="13.89" to="node_03x12" type="highway.undefined" />
    <edge disallow="tram rail_urban rail rail_electric ship" dump_speed="9.39" from="node_11x10" id="xedge_11x19" len="100.0" numLanes="1" priority="5" slowdown="4.5" slowdown_ratio="0.323974082073" speed="13.89" to="node_11x09" type="highway.undefined" />
    <edge disallow="tram rail_urban rail rail_electric ship" dump_speed="9.39" from="node_07x05" id="yedge_05x13" len="100.0" numLanes="1" priority="5" slowdown="4.5" slowdown_ratio="0.323974082073" speed="13.89" to="node_06x05" type="highway.undefined" />
    <edge disallow="tram rail_urban rail rail_electric ship" dump_speed="9.39" from="node_18x09" id="yedge_09x35" len="100.0" numLanes="1" priority="5" slowdown="4.5" slowdown_ratio="0.323974082073" speed="13.89" to="node_17x09" type="highway.undefined" />
    <edge disallow="tram rail_urban rail rail_electric ship" dump_speed="9.39" from="node_06x12" id="yedge_12x12" len="100.0" numLanes="1" priority="5" slowdown="4.5" slowdown_ratio="0.323974082073" speed="13.89" to="node_07x12" type="highway.undefined" />
    <edge disallow="tram rail_urban rail rail_electric ship" dump_speed="9.4" from="node_07x14" id="yedge_14x13" len="100.0" numLanes="1" priority="5" slowdown="4.49" slowdown_ratio="0.323254139669" speed="13.89" to="node_06x14" type="highway.undefined" />
    <edge disallow="tram rail_urban rail rail_electric ship" dump_speed="9.41" from="node_16x10" id="yedge_10x31" len="100.0" numLanes="1" priority="5" slowdown="4.48" slowdown_ratio="0.322534197264" speed="13.89" to="node_15x10" type="highway.undefined" />
    <edge disallow="tram rail_urban rail rail_electric ship" dump_speed="9.41" from="node_04x14" id="yedge_14x08" len="100.0" numLanes="1" priority="5" slowdown="4.48" slowdown_ratio="0.322534197264" speed="13.89" to="node_05x14" type="highway.undefined" />
    <edge disallow="tram rail_urban rail rail_electric ship" dump_speed="9.42" from="node_09x04" id="xedge_09x08" len="100.0" numLanes="1" priority="5" slowdown="4.47" slowdown_ratio="0.32181425486" speed="13.89" to="node_09x05" type="highway.undefined" />
    <edge disallow="tram rail_urban rail rail_electric ship" dump_speed="9.44" from="node_09x12" id="xedge_09x24" len="100.0" numLanes="1" priority="5" slowdown="4.45" slowdown_ratio="0.32037437005" speed="13.89" to="node_09x13" type="highway.undefined" />
    <edge disallow="tram rail_urban rail rail_electric ship" dump_speed="9.44" from="node_11x13" id="xedge_11x26" len="100.0" numLanes="1" priority="5" slowdown="4.45" slowdown_ratio="0.32037437005" speed="13.89" to="node_11x14" type="highway.undefined" />
    <edge disallow="tram rail_urban rail rail_electric ship" dump_speed="9.46" from="node_06x16" id="xedge_06x31" len="100.0" numLanes="1" priority="5" slowdown="4.43" slowdown_ratio="0.318934485241" speed="13.89" to="node_06x15" type="highway.undefined" />
    <edge disallow="tram rail_urban rail rail_electric ship" dump_speed="9.46" from="node_09x04" id="yedge_04x17" len="100.0" numLanes="1" priority="5" slowdown="4.43" slowdown_ratio="0.318934485241" speed="13.89" to="node_08x04" type="highway.undefined" />
    <edge disallow="tram rail_urban rail rail_electric ship" dump_speed="9.46" from="node_12x06" id="yedge_06x24" len="100.0" numLanes="1" priority="5" slowdown="4.43" slowdown_ratio="0.318934485241" speed="13.89" to="node_13x06" type="highway.undefined" />
    <edge disallow="tram rail_urban rail rail_electric ship" dump_speed="9.47" from="node_06x04" id="yedge_04x12" len="100.0" numLanes="1" priority="5" slowdown="4.42" slowdown_ratio="0.318214542837" speed="13.89" to="node_07x04" type="highway.undefined" />
    <edge disallow="tram rail_urban rail rail_electric ship" dump_speed="9.47" from="node_16x06" id="yedge_06x32" len="100.0" numLanes="1" priority="5" slowdown="4.42" slowdown_ratio="0.318214542837" speed="13.89" to="node_17x06" type="highway.undefined" />
    <edge disallow="tram rail_urban rail rail_electric ship" dump_speed="9.47" from="node_15x07" id="yedge_07x30" len="100.0" numLanes="1" priority="5" slowdown="4.42" slowdown_ratio="0.318214542837" speed="13.89" to="node_16x07" type="highway.undefined" />
    <edge disallow="tram rail_urban rail rail_electric ship" dump_speed="9.47" from="node_08x12" id="yedge_12x16" len="100.0" numLanes="1" priority="5" slowdown="4.42" slowdown_ratio="0.318214542837" speed="13.89" to="node_09x12" type="highway.undefined" />
    <edge disallow="tram rail_urban rail rail_electric ship" dump_speed="9.47" from="node_10x16" id="yedge_16x19" len="100.0" numLanes="1" priority="5" slowdown="4.42" slowdown_ratio="0.318214542837" speed="13.89" to="node_09x16" type="highway.undefined" />
    <edge disallow="tram rail_urban rail rail_electric ship" dump_speed="9.48" from="node_11x00" id="xedge_11x00" len="100.0" numLanes="1" priority="5" slowdown="4.41" slowdown_ratio="0.317494600432" speed="13.89" to="node_11x01" type="highway.undefined" />
    <edge disallow="tram rail_urban rail rail_electric ship" dump_speed="9.49" from="node_12x05" id="xedge_12x09" len="100.0" numLanes="1" priority="5" slowdown="4.4" slowdown_ratio="0.316774658027" speed="13.89" to="node_12x04" type="highway.undefined" />
    <edge disallow="tram rail_urban rail rail_electric ship" dump_speed="9.49" from="node_15x11" id="yedge_11x29" len="100.0" numLanes="1" priority="5" slowdown="4.4" slowdown_ratio="0.316774658027" speed="13.89" to="node_14x11" type="highway.undefined" />
    <edge disallow="tram rail_urban rail rail_electric ship" dump_speed="9.49" from="node_06x14" id="yedge_14x12" len="100.0" numLanes="1" priority="5" slowdown="4.4" slowdown_ratio="0.316774658027" speed="13.89" to="node_07x14" type="highway.undefined" />
    <edge disallow="tram rail_urban rail rail_electric ship" dump_speed="9.5" from="node_08x12" id="xedge_08x23" len="100.0" numLanes="1" priority="5" slowdown="4.39" slowdown_ratio="0.316054715623" speed="13.89" to="node_08x11" type="highway.undefined" />
    <edge disallow="tram rail_urban rail rail_electric ship" dump_speed="9.5" from="node_11x16" id="xedge_11x31" len="100.0" numLanes="1" priority="5" slowdown="4.39" slowdown_ratio="0.316054715623" speed="13.89" to="node_11x15" type="highway.undefined" />
    <edge disallow="tram rail_urban rail rail_electric ship" dump_speed="9.5" from="node_13x10" id="xedge_13x19" len="100.0" numLanes="1" priority="5" slowdown="4.39" slowdown_ratio="0.316054715623" speed="13.89" to="node_13x09" type="highway.undefined" />
    <edge disallow="tram rail_urban rail rail_electric ship" dump_speed="9.5" from="node_11x08" id="yedge_08x22" len="100.0" numLanes="1" priority="5" slowdown="4.39" slowdown_ratio="0.316054715623" speed="13.89" to="node_12x08" type="highway.undefined" />
    <edge disallow="tram rail_urban rail rail_electric ship" dump_speed="9.51" from="node_08x05" id="xedge_08x10" len="100.0" numLanes="1" priority="5" slowdown="4.38" slowdown_ratio="0.315334773218" speed="13.89" to="node_08x06" type="highway.undefined" />
    <edge disallow="tram rail_urban rail rail_electric ship" dump_speed="9.52" from="node_07x09" id="xedge_07x17" len="100.0" numLanes="1" priority="5" slowdown="4.37" slowdown_ratio="0.314614830814" speed="13.89" to="node_07x08" type="highway.undefined" />
    <edge disallow="tram rail_urban rail rail_electric ship" dump_speed="9.52" from="node_09x10" id="xedge_09x20" len="100.0" numLanes="1" priority="5" slowdown="4.37" slowdown_ratio="0.314614830814" speed="13.89" to="node_09x11" type="highway.undefined" />
    <edge disallow="tram rail_urban rail rail_electric ship" dump_speed="9.52" from="node_08x07" id="yedge_07x16" len="100.0" numLanes="1" priority="5" slowdown="4.37" slowdown_ratio="0.314614830814" speed="13.89" to="node_09x07" type="highway.undefined" />
    <edge disallow="tram rail_urban rail rail_electric ship" dump_speed="9.53" from="node_07x13" id="xedge_07x26" len="100.0" numLanes="1" priority="5" slowdown="4.36" slowdown_ratio="0.313894888409" speed="13.89" to="node_07x14" type="highway.undefined" />
    <edge disallow="tram rail_urban rail rail_electric ship" dump_speed="9.53" from="node_16x04" id="yedge_04x31" len="100.0" numLanes="1" priority="5" slowdown="4.36" slowdown_ratio="0.313894888409" speed="13.89" to="node_15x04" type="highway.undefined" />
    <edge disallow="tram rail_urban rail rail_electric ship" dump_speed="9.54" from="node_13x14" id="xedge_13x27" len="100.0" numLanes="1" priority="5" slowdown="4.35" slowdown_ratio="0.313174946004" speed="13.89" to="node_13x13" type="highway.undefined" />
    <edge disallow="tram rail_urban rail rail_electric ship" dump_speed="9.54" from="node_01x02" id="yedge_02x01" len="100.0" numLanes="1" priority="5" slowdown="4.35" slowdown_ratio="0.313174946004" speed="13.89" to="node_00x02" type="highway.undefined" />
    <edge disallow="tram rail_urban rail rail_electric ship" dump_speed="9.54" from="node_03x07" id="yedge_07x05" len="100.0" numLanes="1" priority="5" slowdown="4.35" slowdown_ratio="0.313174946004" speed="13.89" to="node_02x07" type="highway.undefined" />
    <edge disallow="tram rail_urban rail rail_electric ship" dump_speed="9.54" from="node_16x11" id="yedge_11x31" len="100.0" numLanes="1" priority="5" slowdown="4.35" slowdown_ratio="0.313174946004" speed="13.89" to="node_15x11" type="highway.undefined" />
    <edge disallow="tram rail_urban rail rail_electric ship" dump_speed="9.55" from="node_05x02" id="xedge_05x03" len="100.0" numLanes="1" priority="5" slowdown="4.34" slowdown_ratio="0.3124550036" speed="13.89" to="node_05x01" type="highway.undefined" />
    <edge disallow="tram rail_urban rail rail_electric ship" dump_speed="9.55" from="node_10x10" id="xedge_10x20" len="100.0" numLanes="1" priority="5" slowdown="4.34" slowdown_ratio="0.3124550036" speed="13.89" to="node_10x11" type="highway.undefined" />
    <edge disallow="tram rail_urban rail rail_electric ship" dump_speed="9.55" from="node_20x05" id="yedge_05x39" len="100.0" numLanes="1" priority="5" slowdown="4.34" slowdown_ratio="0.3124550036" speed="13.89" to="node_19x05" type="highway.undefined" />
    <edge disallow="tram rail_urban rail rail_electric ship" dump_speed="9.55" from="node_10x10" id="yedge_10x20" len="100.0" numLanes="1" priority="5" slowdown="4.34" slowdown_ratio="0.3124550036" speed="13.89" to="node_11x10" type="highway.undefined" />
    <edge disallow="tram rail_urban rail rail_electric ship" dump_speed="9.55" from="node_11x10" id="yedge_10x21" len="100.0" numLanes="1" priority="5" slowdown="4.34" slowdown_ratio="0.3124550036" speed="13.89" to="node_10x10" type="highway.undefined" />
    <edge disallow="tram rail_urban rail rail_electric ship" dump_speed="9.55" from="node_13x10" id="yedge_10x25" len="100.0" numLanes="1" priority="5" slowdown="4.34" slowdown_ratio="0.3124550036" speed="13.89" to="node_12x10" type="highway.undefined" />
    <edge disallow="tram rail_urban rail rail_electric ship" dump_speed="9.55" from="node_09x12" id="yedge_12x17" len="100.0" numLanes="1" priority="5" slowdown="4.34" slowdown_ratio="0.3124550036" speed="13.89" to="node_08x12" type="highway.undefined" />
    <edge disallow="tram rail_urban rail rail_electric ship" dump_speed="9.56" from="node_10x09" id="xedge_10x18" len="100.0" numLanes="1" priority="5" slowdown="4.33" slowdown_ratio="0.311735061195" speed="13.89" to="node_10x10" type="highway.undefined" />
    <edge disallow="tram rail_urban rail rail_electric ship" dump_speed="9.56" from="node_12x07" id="xedge_12x14" len="100.0" numLanes="1" priority="5" slowdown="4.33" slowdown_ratio="0.311735061195" speed="13.89" to="node_12x08" type="highway.undefined" />
    <edge disallow="tram rail_urban rail rail_electric ship" dump_speed="9.56" from="node_01x07" id="yedge_07x02" len="100.0" numLanes="1" priority="5" slowdown="4.33" slowdown_ratio="0.311735061195" speed="13.89" to="node_02x07" type="highway.undefined" />
    <edge disallow="tram rail_urban rail rail_electric ship" dump_speed="9.56" from="node_13x07" id="yedge_07x25" len="100.0" numLanes="1" priority="5" slowdown="4.33" slowdown_ratio="0.311735061195" speed="13.89" to="node_12x07" type="highway.undefined" />
    <edge disallow="tram rail_urban rail rail_electric ship" dump_speed="9.57" from="node_09x07" id="xedge_09x13" len="100.0" numLanes="1" priority="5" slowdown="4.32" slowdown_ratio="0.31101511879" speed="13.89" to="node_09x06" type="highway.undefined" />
    <edge disallow="tram rail_urban rail rail_electric ship" dump_speed="9.58" from="node_11x06" id="xedge_11x12" len="100.0" numLanes="1" priority="5" slowdown="4.31" slowdown_ratio="0.310295176386" speed="13.89" to="node_11x07" type="highway.undefined" />
    <edge disallow="tram rail_urban rail rail_electric ship" dump_speed="9.58" from="node_11x18" id="xedge_11x36" len="100.0" numLanes="1" priority="5" slowdown="4.31" slowdown_ratio="0.310295176386" speed="13.89" to="node_11x19" type="highway.undefined" />
    <edge disallow="tram rail_urban rail rail_electric ship" dump_speed="9.58" from="node_12x17" id="xedge_12x33" len="100.0" numLanes="1" priority="5" slowdown="4.31" slowdown_ratio="0.310295176386" speed="13.89" to="node_12x16" type="highway.undefined" />
    <edge disallow="tram rail_urban rail rail_electric ship" dump_speed="9.58" from="node_18x08" id="yedge_08x35" len="100.0" numLanes="1" priority="5" slowdown="4.31" slowdown_ratio="0.310295176386" speed="13.89" to="node_17x08" type="highway.undefined" />
    <edge disallow="tram rail_urban rail rail_electric ship" dump_speed="9.58" from="node_10x09" id="yedge_09x20" len="100.0" numLanes="1" priority="5" slowdown="4.31" slowdown_ratio="0.310295176386" speed="13.89" to="node_11x09" type="highway.undefined" />
    <edge disallow="tram rail_urban rail rail_electric ship" dump_speed="9.58" from="node_08x11" id="yedge_11x16" len="100.0" numLanes="1" priority="5" slowdown="4.31" slowdown_ratio="0.310295176386" speed="13.89" to="node_09x11" type="highway.undefined" />
    <edge disallow="tram rail_urban rail rail_electric ship" dump_speed="9.59" from="node_05x03" id="xedge_05x05" len="100.0" numLanes="1" priority="5" slowdown="4.3" slowdown_ratio="0.309575233981" speed="13.89" to="node_05x02" type="highway.undefined" />
    <edge disallow="tram rail_urban rail rail_electric ship" dump_speed="9.59" from="node_06x11" id="xedge_06x22" len="100.0" numLanes="1" priority="5" slowdown="4.3" slowdown_ratio="0.309575233981" speed="13.89" to="node_06x12" type="highway.undefined" />
    <edge disallow="tram rail_urban rail rail_electric ship" dump_speed="9.59" from="node_08x13" id="xedge_08x26" len="100.0" numLanes="1" priority="5" slowdown="4.3" slowdown_ratio="0.309575233981" speed="13.89" to="node_08x14" type="highway.undefined" />
    <edge disallow="tram rail_urban rail rail_electric ship" dump_speed="9.59" from="node_13x00" id="xedge_13x00" len="100.0" numLanes="1" priority="5" slowdown="4.3" slowdown_ratio="0.309575233981" speed="13.89" to="node_13x01" type="highway.undefined" />
    <edge disallow="tram rail_urban rail rail_electric ship" dump_speed="9.59" from="node_09x08" id="yedge_08x17" len="100.0" numLanes="1" priority="5" slowdown="4.3" slowdown_ratio="0.309575233981" speed="13.89" to="node_08x08" type="highway.undefined" />
    <edge disallow="tram rail_urban rail rail_electric ship" dump_speed="9.59" from="node_09x11" id="yedge_11x18" len="100.0" numLanes="1" priority="5" slowdown="4.3" slowdown_ratio="0.309575233981" speed="13.89" to="node_10x11" type="highway.undefined" />
    <edge disallow="tram rail_urban rail rail_electric ship" dump_speed="9.59" from="node_06x15" id="yedge_15x11" len="100.0" numLanes="1" priority="5" slowdown="4.3" slowdown_ratio="0.309575233981" speed="13.89" to="node_05x15" type="highway.undefined" />
    <edge disallow="tram rail_urban rail rail_electric ship" dump_speed="9.6" from="node_06x14" id="xedge_06x27" len="100.0" numLanes="1" priority="5" slowdown="4.29" slowdown_ratio="0.308855291577" speed="13.89" to="node_06x13" type="highway.undefined" />
    <edge disallow="tram rail_urban rail rail_electric ship" dump_speed="9.6" from="node_10x14" id="xedge_10x27" len="100.0" numLanes="1" priority="5" slowdown="4.29" slowdown_ratio="0.308855291577" speed="13.89" to="node_10x13" type="highway.undefined" />
    <edge disallow="tram rail_urban rail rail_electric ship" dump_speed="9.6" from="node_20x19" id="xedge_20x38" len="100.0" numLanes="1" priority="5" slowdown="4.29" slowdown_ratio="0.308855291577" speed="13.89" to="node_20x20" type="highway.undefined" />
    <edge disallow="tram rail_urban rail rail_electric ship" dump_speed="9.6" from="node_08x11" id="yedge_11x15" len="100.0" numLanes="1" priority="5" slowdown="4.29" slowdown_ratio="0.308855291577" speed="13.89" to="node_07x11" type="highway.undefined" />
    <edge disallow="tram rail_urban rail rail_electric ship" dump_speed="9.61" from="node_08x07" id="xedge_08x14" len="100.0" numLanes="1" priority="5" slowdown="4.28" slowdown_ratio="0.308135349172" speed="13.89" to="node_08x08" type="highway.undefined" />
    <edge disallow="tram rail_urban rail rail_electric ship" dump_speed="9.61" from="node_14x06" id="xedge_14x12" len="100.0" numLanes="1" priority="5" slowdown="4.28" slowdown_ratio="0.308135349172" speed="13.89" to="node_14x07" type="highway.undefined" />
    <edge disallow="tram rail_urban rail rail_electric ship" dump_speed="9.61" from="node_10x04" id="yedge_04x20" len="100.0" numLanes="1" priority="5" slowdown="4.28" slowdown_ratio="0.308135349172" speed="13.89" to="node_11x04" type="highway.undefined" />
    <edge disallow="tram rail_urban rail rail_electric ship" dump_speed="9.61" from="node_14x08" id="yedge_08x27" len="100.0" numLanes="1" priority="5" slowdown="4.28" slowdown_ratio="0.308135349172" speed="13.89" to="node_13x08" type="highway.undefined" />
    <edge disallow="tram rail_urban rail rail_electric ship" dump_speed="9.61" from="node_17x09" id="yedge_09x33" len="100.0" numLanes="1" priority="5" slowdown="4.28" slowdown_ratio="0.308135349172" speed="13.89" to="node_16x09" type="highway.undefined" />
    <edge disallow="tram rail_urban rail rail_electric ship" dump_speed="9.62" from="node_10x13" id="xedge_10x26" len="100.0" numLanes="1" priority="5" slowdown="4.27" slowdown_ratio="0.307415406767" speed="13.89" to="node_10x14" type="highway.undefined" />
    <edge disallow="tram rail_urban rail rail_electric ship" dump_speed="9.62" from="node_09x09" id="yedge_09x17" len="100.0" numLanes="1" priority="5" slowdown="4.27" slowdown_ratio="0.307415406767" speed="13.89" to="node_08x09" type="highway.undefined" />
    <edge disallow="tram rail_urban rail rail_electric ship" dump_speed="9.63" from="node_13x03" id="xedge_13x06" len="100.0" numLanes="1" priority="5" slowdown="4.26" slowdown_ratio="0.306695464363" speed="13.89" to="node_13x04" type="highway.undefined" />
    <edge disallow="tram rail_urban rail rail_electric ship" dump_speed="9.63" from="node_13x09" id="xedge_13x17" len="100.0" numLanes="1" priority="5" slowdown="4.26" slowdown_ratio="0.306695464363" speed="13.89" to="node_13x08" type="highway.undefined" />
    <edge disallow="tram rail_urban rail rail_electric ship" dump_speed="9.63" from="node_02x06" id="yedge_06x04" len="100.0" numLanes="1" priority="5" slowdown="4.26" slowdown_ratio="0.306695464363" speed="13.89" to="node_03x06" type="highway.undefined" />
    <edge disallow="tram rail_urban rail rail_electric ship" dump_speed="9.63" from="node_16x08" id="yedge_08x32" len="100.0" numLanes="1" priority="5" slowdown="4.26" slowdown_ratio="0.306695464363" speed="13.89" to="node_17x08" type="highway.undefined" />
    <edge disallow="tram rail_urban rail rail_electric ship" dump_speed="9.63" from="node_17x08" id="yedge_08x34" len="100.0" numLanes="1" priority="5" slowdown="4.26" slowdown_ratio="0.306695464363" speed="13.89" to="node_18x08" type="highway.undefined" />
    <edge disallow="tram rail_urban rail rail_electric ship" dump_speed="9.63" from="node_02x11" id="yedge_11x04" len="100.0" numLanes="1" priority="5" slowdown="4.26" slowdown_ratio="0.306695464363" speed="13.89" to="node_03x11" type="highway.undefined" />
    <edge disallow="tram rail_urban rail rail_electric ship" dump_speed="9.63" from="node_10x11" id="yedge_11x19" len="100.0" numLanes="1" priority="5" slowdown="4.26" slowdown_ratio="0.306695464363" speed="13.89" to="node_09x11" type="highway.undefined" />
    <edge disallow="tram rail_urban rail rail_electric ship" dump_speed="9.64" from="node_13x07" id="yedge_07x26" len="100.0" numLanes="1" priority="5" slowdown="4.25" slowdown_ratio="0.305975521958" speed="13.89" to="node_14x07" type="highway.undefined" />
    <edge disallow="tram rail_urban rail rail_electric ship" dump_speed="9.64" from="node_16x07" id="yedge_07x32" len="100.0" numLanes="1" priority="5" slowdown="4.25" slowdown_ratio="0.305975521958" speed="13.89" to="node_17x07" type="highway.undefined" />
    <edge disallow="tram rail_urban rail rail_electric ship" dump_speed="9.64" from="node_05x14" id="yedge_14x09" len="100.0" numLanes="1" priority="5" slowdown="4.25" slowdown_ratio="0.305975521958" speed="13.89" to="node_04x14" type="highway.undefined" />
    <edge disallow="tram rail_urban rail rail_electric ship" dump_speed="9.65" from="node_08x13" id="xedge_08x25" len="100.0" numLanes="1" priority="5" slowdown="4.24" slowdown_ratio="0.305255579554" speed="13.89" to="node_08x12" type="highway.undefined" />