<?xml version="1.0"?>
<!-- generated on 2016-10-06 11:33:33.507000 by $Id: route2trips.py 20433 2016-04-13 08:00:14Z behrisch $ -->
<trips>
    <vType id="passenger" vClass="passenger"/>
    <trip id="0" depart="0.00" from="24161336#1" to="-24207106#0" type="passenger"/>
    <trip id="1" depart="0.10" from="434371436#0" to="177664510#1" type="passenger"/>
    <trip id="2" depart="0.20" from="24167844#0" to="24215279#0" type="passenger"/>
    <trip id="3" depart="0.30" from="-232754804#5" to="225767569#1" type="passenger"/>
    <trip id="4" depart="0.40" from="26411253#6" to="91906336" type="passenger"/>
    <trip id="5" depart="0.50" from="140647930#0" to="-24289530#2" type="passenger"/>
    <trip id="6" depart="0.60" from="24156192#1" to="225764863#0" type="passenger"/>
    <trip id="7" depart="0.70" from="-396341921#0" to="232602214#0" type="passenger"/>
    <trip id="8" depart="0.80" from="-170830450#0" to="-394140583#0" type="passenger"/>
    <trip id="9" depart="0.90" from="434373875#0" to="-24206732#0" type="passenger"/>
    <trip id="10" depart="1.00" from="394150582#5" to="-24289337" type="passenger"/>
    <trip id="11" depart="1.10" from="-391403622#25" to="170405627#1" type="passenger"/>
    <trip id="12" depart="1.20" from="229632304#0" to="397611519#7-AddedOnRampEdge" type="passenger"/>
    <trip id="13" depart="1.30" from="24157216#0" to="24196625#1" type="passenger"/>
    <trip id="14" depart="1.40" from="398649478#7" to="-161881429#1" type="passenger"/>
    <trip id="15" depart="1.50" from="320626914#0" to="24215250#4" type="passenger"/>
    <trip id="16" depart="1.60" from="-118261380#0" to="24214821#0" type="passenger"/>
    <trip id="17" depart="1.70" from="24290178#1" to="-24167574#1" type="passenger"/>
    <trip id="18" depart="1.80" from="136390808#3" to="24165483#0" type="passenger"/>
    <trip id="19" depart="1.90" from="-276488343#0" to="177797296#10" type="passenger"/>
    <trip id="20" depart="2.00" from="-24165511#0" to="24167859#2" type="passenger"/>
    <trip id="21" depart="2.10" from="gneE11" to="-24167587" type="passenger"/>
    <trip id="22" depart="2.20" from="432445599#11" to="-396704154#39" type="passenger"/>
    <trip id="23" depart="2.30" from="26004856#5" to="238592484" type="passenger"/>
    <trip id="24" depart="2.40" from="327645500#0.0" to="24160885#1" type="passenger"/>
    <trip id="25" depart="2.50" from="-24289465" to="172758396#3" type="passenger"/>
    <trip id="26" depart="2.60" from="-24293366#2" to="-24293407#1" type="passenger"/>
    <trip id="27" depart="2.70" from="318346892#0" to="376557475#1" type="passenger"/>
    <trip id="28" depart="2.80" from="-387552649#3" to="172962023" type="passenger"/>
    <trip id="29" depart="2.90" from="-24290787#0" to="343164471#2" type="passenger"/>
    <trip id="30" depart="3.00" from="24156849#14" to="185059370#0" type="passenger"/>
    <trip id="31" depart="3.10" from="-172827099#2" to="-391008602#1" type="passenger"/>
    <trip id="32" depart="3.20" from="434395742#0" to="318346940#4" type="passenger"/>
    <trip id="33" depart="3.30" from="381937483#5-AddedOffRampEdge" to="-118261378" type="passenger"/>
    <trip id="34" depart="3.40" from="24293382" to="140647938#1" type="passenger"/>
    <trip id="35" depart="3.50" from="24293421" to="432412029#7" type="passenger"/>
    <trip id="36" depart="3.60" from="-91392679#1" to="-228767457#1" type="passenger"/>
    <trip id="37" depart="3.70" from="381937483#2" to="24290801#3" type="passenger"/>
    <trip id="38" depart="3.80" from="-24196685#1" to="-24167819#0" type="passenger"/>
    <trip id="39" depart="3.90" from="24177966#3" to="-24206752#0" type="passenger"/>
    <trip id="40" depart="4.00" from="241507716#2.80" to="169448282" type="passenger"/>
    <trip id="41" depart="4.10" from="282487607#2-AddedOnRampEdge" to="387558813#1" type="passenger"/>
    <trip id="42" depart="4.20" from="-27274453#6" to="24164683#1" type="passenger"/>
    <trip id="43" depart="4.30" from="169868852#0" to="-91663026#0" type="passenger"/>
    <trip id="44" depart="4.40" from="24206960#5" to="172830100#5" type="passenger"/>
    <trip id="45" depart="4.50" from="-312027713" to="24161402#5" type="passenger"/>
    <trip id="46" depart="4.60" from="26353281#3" to="24157061#3" type="passenger"/>
    <trip id="47" depart="4.70" from="434371440#21" to="-204619344" type="passenger"/>
    <trip id="48" depart="4.80" from="-24167589#1" to="283795459#8-AddedOnRampEdge" type="passenger"/>
    <trip id="49" depart="4.90" from="394156634#14" to="204765542#1" type="passenger"/>
    <trip id="50" depart="5.00" from="286632139#2" to="167726466#5.68" type="passenger"/>
    <trip id="51" depart="5.10" from="225767578#6" to="-239039764#0" type="passenger"/>
    <trip id="52" depart="5.20" from="227105902#1" to="160600925#0" type="passenger"/>
    <trip id="53" depart="5.30" from="24177925#1" to="432443429#0" type="passenger"/>
    <trip id="54" depart="5.40" from="-24165475#1" to="-24177201#1" type="passenger"/>
    <trip id="55" depart="5.50" from="80576087#4" to="-24189942#4" type="passenger"/>
    <trip id="56" depart="5.60" from="24290139#1" to="-389922729#2" type="passenger"/>
    <trip id="57" depart="5.70" from="289505845" to="-24164677#1" type="passenger"/>
    <trip id="58" depart="5.80" from="394378231#0" to="24164322" type="passenger"/>
    <trip id="59" depart="5.90" from="409872075#0.43" to="-24196628#1" type="passenger"/>
    <trip id="60" depart="6.00" from="327542046#1" to="24214798#8" type="passenger"/>
    <trip id="61" depart="6.10" from="185059368" to="161881415#1" type="passenger"/>
    <trip id="62" depart="6.20" from="399036997#0" to="-91673848#1" type="passenger"/>
    <trip id="63" depart="6.30" from="24293426#4" to="159536426#8" type="passenger"/>
    <trip id="64" depart="6.40" from="-261193475#0" to="24289433#1" type="passenger"/>
    <trip id="65" depart="6.50" from="-24214811#8" to="418671572#11" type="passenger"/>
    <trip id="66" depart="6.60" from="-24177240#1" to="-242874573#1" type="passenger"/>
    <trip id="67" depart="6.70" from="-24289330#1" to="-24196636#0" type="passenger"/>
    <trip id="68" depart="6.80" from="-396951307#4" to="24167591" type="passenger"/>
    <trip id="69" depart="6.90" from="68675249#2" to="-24160959#3" type="passenger"/>
    <trip id="70" depart="7.00" from="24293426#3" to="-26005258#0" type="passenger"/>
    <trip id="71" depart="7.10" from="24307267#1" to="159536430#1" type="passenger"/>
    <trip id="72" depart="7.20" from="89664861#0" to="26485468#6" type="passenger"/>
    <trip id="73" depart="7.30" from="415113203#4-AddedOffRampEdge" to="161881435#1" type="passenger"/>
    <trip id="74" depart="7.40" from="-24167857#0" to="24164316#1" type="passenger"/>
    <trip id="75" depart="7.50" from="172632012#2-AddedOffRampEdge" to="392996082#1" type="passenger"/>
    <trip id="76" depart="7.60" from="-228767459#1" to="-24177915#6" type="passenger"/>
    <trip id="77" depart="7.70" from="-24290291#0" to="66419182#0" type="passenger"/>
    <trip id="78" depart="7.80" from="112672265#0" to="24157135#4" type="passenger"/>
    <trip id="79" depart="7.90" from="392749181#1" to="24215045#1" type="passenger"/>
    <trip id="80" depart="8.00" from="320626921#6" to="89783754#4" type="passenger"/>
    <trip id="81" depart="8.10" from="170998772#2" to="389530747#7" type="passenger"/>
    <trip id="82" depart="8.20" from="177797296#5" to="24175626#0" type="passenger"/>
    <trip id="83" depart="8.30" from="24206729#0" to="100971955" type="passenger"/>
    <trip id="84" depart="8.40" from="244420351" to="26005258#0" type="passenger"/>
    <trip id="85" depart="8.50" from="-118261910#5" to="172827117#3" type="passenger"/>
    <trip id="86" depart="8.60" from="24290259#14" to="24157062#8" type="passenger"/>
    <trip id="87" depart="8.70" from="282224349#8-AddedOnRampEdge" to="24157058#2" type="passenger"/>
    <trip id="88" depart="8.80" from="24290201#2" to="24256882#5" type="passenger"/>
    <trip id="89" depart="8.90" from="-26004695#1" to="-100956297#2" type="passenger"/>
    <trip id="90" depart="9.00" from="-24165498#3" to="-24290799#5" type="passenger"/>
    <trip id="91" depart="9.10" from="289212922#3-AddedOffRampEdge" to="95205774#0" type="passenger"/>
    <trip id="92" depart="9.20" from="150783618#0" to="-167777233#1" type="passenger"/>
    <trip id="93" depart="9.30" from="-24178366#4" to="59988640#4" type="passenger"/>
    <trip id="94" depart="9.40" from="363296502#18" to="65596625#1" type="passenger"/>
    <trip id="95" depart="9.50" from="-24177250#1" to="418671474#5" type="passenger"/>
    <trip id="96" depart="9.60" from="265005937" to="383597695" type="passenger"/>
    <trip id="97" depart="9.70" from="144308663" to="389919793" type="passenger"/>
    <trip id="98" depart="9.80" from="24151152#4" to="399236986#4" type="passenger"/>
    <trip id="99" depart="9.90" from="318346903#3-AddedOnRampEdge" to="24165487#2" type="passenger"/>
    <trip id="100" depart="10.00" from="59988644#8-AddedOffRampEdge" to="177263164" type="passenger"/>
    <trip id="101" depart="10.10" from="-406222853#4" to="398945167#3-AddedOnRampEdge" type="passenger"/>
    <trip id="102" depart="10.20" from="24177937#13" to="-24214809#4" type="passenger"/>
    <trip id="103" depart="10.30" from="386904346#1" to="90658050" type="passenger"/>
    <trip id="104" depart="10.40" from="304385372#0" to="170405870#5" type="passenger"/>
    <trip id="105" depart="10.50" from="-27274369#2" to="24167559" type="passenger"/>
    <trip id="106" depart="10.60" from="184875417" to="24189924#6" type="passenger"/>
    <trip id="107" depart="10.70" from="-24189924#1" to="24167819#1" type="passenger"/>
    <trip id="108" depart="10.80" from="24290766#6" to="-170229036#1" type="passenger"/>
    <trip id="109" depart="10.90" from="-66029440#1" to="-24189924#5" type="passenger"/>
    <trip id="110" depart="11.00" from="401159005#1" to="170334927" type="passenger"/>
    <trip id="111" depart="11.10" from="398945167#4" to="318298219#9-AddedOffRampEdge" type="passenger"/>
    <trip id="112" depart="11.20" from="24156849#16" to="399098934#12" type="passenger"/>
    <trip id="113" depart="11.30" from="429935025#1" to="170931280" type="passenger"/>
    <trip id="114" depart="11.40" from="24196652#0" to="430203458#3.252" type="passenger"/>
    <trip id="115" depart="11.50" from="-24189941" to="-24207121#0" type="passenger"/>
    <trip id="116" depart="11.60" from="-177134194#0" to="24214807#8" type="passenger"/>
    <trip id="117" depart="11.70" from="371548882#0" to="-395072831#0" type="passenger"/>
    <trip id="118" depart="11.80" from="121822222" to="170931079" type="passenger"/>
    <trip id="119" depart="11.90" from="258086825#1" to="434371578#2-AddedOnRampEdge" type="passenger"/>
    <trip id="120" depart="12.00" from="-120385146" to="389922698" type="passenger"/>
    <trip id="121" depart="12.10" from="-24175546#5" to="24214795#3" type="passenger"/>
    <trip id="122" depart="12.20" from="-172797708#0" to="-392797856#2" type="passenger"/>
    <trip id="123" depart="12.30" from="24214798#1" to="144308127" type="passenger"/>
    <trip id="124" depart="12.40" from="121908565#1" to="-24167869#0" type="passenger"/>
    <trip id="125" depart="12.50" from="-394378231#3" to="-223696744" type="passenger"/>
    <trip id="126" depart="12.60" from="-24165506" to="-394371329#1" type="passenger"/>
    <trip id="127" depart="12.70" from="-160600926#2" to="24206728" type="passenger"/>
    <trip id="128" depart="12.80" from="65596631#6" to="328199111#1" type="passenger"/>
    <trip id="129" depart="12.90" from="-163573476#7" to="-400096104#1" type="passenger"/>
    <trip id="130" depart="13.00" from="24167864#2" to="24156849#1" type="passenger"/>
    <trip id="131" depart="13.10" from="392975663#2" to="26005194#1" type="passenger"/>
    <trip id="133" depart="13.30" from="387558809#9" to="177136082#0" type="passenger"/>
    <trip id="134" depart="13.40" from="-24160966#0" to="297218053#4-AddedOffRampEdge" type="passenger"/>
    <trip id="135" depart="13.50" from="401783446#1" to="161773232#1" type="passenger"/>
    <trip id="136" depart="13.60" from="-24214816#4" to="331614310#0" type="passenger"/>
    <trip id="137" depart="13.70" from="112672695#10" to="-127732570#2" type="passenger"/>
    <trip id="138" depart="13.80" from="-26005009#3" to="-24214796#2" type="passenger"/>
    <trip id="139" depart="13.90" from="26244529#5" to="24214807#0" type="passenger"/>
    <trip id="140" depart="14.00" from="264423414" to="170175808" type="passenger"/>
    <trip id="141" depart="14.10" from="-24196615#0" to="-24175549#2" type="passenger"/>
    <trip id="142" depart="14.20" from="24175589#5" to="293282181" type="passenger"/>
    <trip id="143" depart="14.30" from="-24161404#1" to="-170932553#2" type="passenger"/>
    <trip id="144" depart="14.40" from="161773232#2" to="399036997#10-AddedOnRampEdge" type="passenger"/>
    <trip id="145" depart="14.50" from="24214991#0" to="-392797858#3" type="passenger"/>
    <trip id="146" depart="14.60" from="-416630555" to="91662997#4" type="passenger"/>
    <trip id="147" depart="14.70" from="24156847#23-AddedOffRampEdge" to="304107570" type="passenger"/>
    <trip id="148" depart="14.80" from="24155983#1" to="24215274#0" type="passenger"/>
    <trip id="149" depart="14.90" from="228767447#8" to="185059369#1" type="passenger"/>
    <trip id="150" depart="15.00" from="167719751#8.42" to="-24290800#0" type="passenger"/>
    <trip id="151" depart="15.10" from="409874438#0" to="-402673732" type="passenger"/>
    <trip id="152" depart="15.20" from="101513763#7" to="387558813#8" type="passenger"/>
    <trip id="153" depart="15.30" from="26485970#2" to="24189957#1" type="passenger"/>
    <trip id="154" depart="15.40" from="24177990#2" to="327528496.28" type="passenger"/>
    <trip id="155" depart="15.50" from="-24214816#4" to="24165483#0" type="passenger"/>
    <trip id="156" depart="15.60" from="-167775377#0" to="24160889#1" type="passenger"/>
    <trip id="157" depart="15.70" from="111301375" to="-24290786#4" type="passenger"/>
    <trip id="158" depart="15.80" from="304382252#4" to="392927086#2" type="passenger"/>
    <trip id="159" depart="15.90" from="167754069#2" to="282215708" type="passenger"/>
    <trip id="160" depart="16.00" from="232602213#0" to="-24177241#3" type="passenger"/>
    <trip id="161" depart="16.10" from="24289446#1" to="169861714" type="passenger"/>
    <trip id="162" depart="16.20" from="387562406" to="24160884#22" type="passenger"/>
    <trip id="163" depart="16.30" from="-384969166#0" to="-232643181#0" type="passenger"/>
    <trip id="164" depart="16.40" from="169549608" to="400096107#1" type="passenger"/>
    <trip id="165" depart="16.50" from="24214825#5" to="26411282#13" type="passenger"/>
    <trip id="166" depart="16.60" from="304195136#1" to="177134193#2" type="passenger"/>
    <trip id="167" depart="16.70" from="177797307#1" to="24161721#2" type="passenger"/>
    <trip id="168" depart="16.80" from="-400096105#0" to="24151052#0" type="passenger"/>
    <trip id="169" depart="16.90" from="-68675249#0" to="432443429#7" type="passenger"/>
    <trip id="170" depart="17.00" from="24164311#2" to="243708473#3" type="passenger"/>
    <trip id="171" depart="17.10" from="190240089" to="418671383#6" type="passenger"/>
    <trip id="172" depart="17.20" from="24256852#0" to="177134194#1" type="passenger"/>
    <trip id="173" depart="17.30" from="-404944401" to="-24161414#0" type="passenger"/>
    <trip id="174" depart="17.40" from="-386904346#5" to="-24207123#1" type="passenger"/>
    <trip id="175" depart="17.50" from="121908565#1-AddedOnRampEdge" to="24167577#0" type="passenger"/>
    <trip id="176" depart="17.60" from="-328199111#0" to="24178354#4" type="passenger"/>
    <trip id="177" depart="17.70" from="24256882#4" to="-173469364#3" type="passenger"/>
    <trip id="178" depart="17.80" from="398394920#0" to="167719751#4.24" type="passenger"/>
    <trip id="179" depart="17.90" from="327645500#0.44" to="66019302#1" type="passenger"/>
    <trip id="180" depart="18.00" from="24177990#1" to="24161728#2" type="passenger"/>
    <trip id="181" depart="18.10" from="24161749#2" to="24175564#2" type="passenger"/>
    <trip id="182" depart="18.20" from="331637953-AddedOffRampEdge" to="24196614#0" type="passenger"/>
    <trip id="183" depart="18.30" from="24160931" to="-391889687#6" type="passenger"/>
    <trip id="184" depart="18.40" from="gneE75" to="-26353728#9" type="passenger"/>
    <trip id="185" depart="18.50" from="394653399#3" to="91797555#0" type="passenger"/>
    <trip id="186" depart="18.60" from="80819298#3.0" to="227103778" type="passenger"/>
    <trip id="187" depart="18.70" from="-232602202" to="411779655#4" type="passenger"/>
    <trip id="188" depart="18.80" from="24206881#1" to="242874555#5" type="passenger"/>
    <trip id="189" depart="18.90" from="398649478#1-AddedOffRampEdge" to="-232643187#2" type="passenger"/>
    <trip id="190" depart="19.00" from="406210998#1" to="394517380" type="passenger"/>
    <trip id="191" depart="19.10" from="396951307#5" to="172960398" type="passenger"/>
    <trip id="192" depart="19.20" from="-24167850#4" to="-24196636#0" type="passenger"/>
    <trip id="193" depart="19.30" from="24290159#5" to="gneE35" type="passenger"/>
    <trip id="194" depart="19.40" from="24165483#0" to="-26004695#1" type="passenger"/>
    <trip id="195" depart="19.50" from="-296794803" to="24157333#1" type="passenger"/>
    <trip id="196" depart="19.60" from="394517377#1" to="24290209#1" type="passenger"/>
    <trip id="197" depart="19.70" from="24293375#8" to="24290135#0" type="passenger"/>
    <trip id="198" depart="19.80" from="434390968#4" to="-232769168#5" type="passenger"/>
    <trip id="199" depart="19.90" from="264423416#1" to="-24161324#1" type="passenger"/>
    <trip id="201" depart="20.10" from="232602211#1" to="150781738#4" type="passenger"/>
    <trip id="202" depart="20.20" from="24289452" to="238592483" type="passenger"/>
    <trip id="203" depart="20.30" from="407473933#5" to="-24167828#2" type="passenger"/>
    <trip id="204" depart="20.40" from="-232602212" to="24290213#0" type="passenger"/>
    <trip id="205" depart="20.50" from="167719763#8.114" to="344506416#1" type="passenger"/>
    <trip id="206" depart="20.60" from="24290153#3" to="263351300" type="passenger"/>
    <trip id="207" depart="20.70" from="91899251" to="282224353#20" type="passenger"/>
    <trip id="208" depart="20.80" from="283795454#7" to="80925823#3" type="passenger"/>
    <trip id="209" depart="20.90" from="24290765#6" to="-24206955#1" type="passenger"/>
    <trip id="210" depart="21.00" from="-24214813#0" to="112672267#1" type="passenger"/>
    <trip id="211" depart="21.10" from="24167597#0" to="381938441-AddedOffRampEdge" type="passenger"/>
    <trip id="212" depart="21.20" from="-391008602#1" to="194066132#1" type="passenger"/>
    <trip id="213" depart="21.30" from="gneE82" to="434371436#5" type="passenger"/>
    <trip id="214" depart="21.40" from="-24290172" to="24160944" type="passenger"/>
    <trip id="215" depart="21.50" from="-394380232#0" to="112672695#4" type="passenger"/>
    <trip id="216" depart="21.60" from="24175564#1" to="170175643#5-AddedOnRampEdge" type="passenger"/>
    <trip id="217" depart="21.70" from="24167845#2" to="-24175604#2" type="passenger"/>
    <trip id="218" depart="21.80" from="391010583" to="-24167819#0" type="passenger"/>
    <trip id="219" depart="21.90" from="24167850#3" to="289212930" type="passenger"/>
    <trip id="220" depart="22.00" from="24293435#0" to="286632144#13" type="passenger"/>
    <trip id="221" depart="22.10" from="173009877#1" to="24157206#0" type="passenger"/>
    <trip id="222" depart="22.20" from="-160600925#6" to="70204036#0" type="passenger"/>
    <trip id="223" depart="22.30" from="132912994#3" to="24161744#1" type="passenger"/>
    <trip id="224" depart="22.40" from="282224349#4" to="167726466#1" type="passenger"/>
    <trip id="225" depart="22.50" from="24206858#2" to="80576087#6-AddedOffRampEdge" type="passenger"/>
    <trip id="226" depart="22.60" from="-24206867#0" to="24165493#0" type="passenger"/>
    <trip id="227" depart="22.70" from="282215708" to="24290301#1" type="passenger"/>
    <trip id="228" depart="22.80" from="24206859#3" to="24156892#2" type="passenger"/>
    <trip id="229" depart="22.90" from="241507716#1" to="-390003879" type="passenger"/>
    <trip id="230" depart="23.00" from="255881379" to="-169548469" type="passenger"/>
    <trip id="231" depart="23.10" from="-24206720#9" to="297086892#2" type="passenger"/>
    <trip id="232" depart="23.20" from="395014645#3" to="159472098#3" type="passenger"/>
    <trip id="233" depart="23.30" from="-24214798#3" to="-24290215#3" type="passenger"/>
    <trip id="234" depart="23.40" from="227103771" to="24290165#6" type="passenger"/>
    <trip id="235" depart="23.50" from="24155944#7" to="331637960#3" type="passenger"/>
    <trip id="236" depart="23.60" from="-249515693#3" to="381937483#5-AddedOffRampEdge" type="passenger"/>
    <trip id="237" depart="23.70" from="24290226#2" to="-66419182#2" type="passenger"/>
    <trip id="238" depart="23.80" from="161881422" to="-163573476#7" type="passenger"/>
    <trip id="239" depart="23.90" from="332507418#0" to="26244475#3" type="passenger"/>
    <trip id="240" depart="24.00" from="402014035#6" to="283795457#5" type="passenger"/>
    <trip id="241" depart="24.10" from="-416630555" to="168757658#0-AddedOffRampEdge" type="passenger"/>
    <trip id="242" depart="24.20" from="24215281#5" to="-24177937#9" type="passenger"/>
    <trip id="243" depart="24.30" from="-392995851#0" to="289212922#2" type="passenger"/>
    <trip id="244" depart="24.40" from="289324046#7" to="91906361#2" type="passenger"/>
    <trip id="245" depart="24.50" from="-24178367#2" to="-24164324#3" type="passenger"/>
    <trip id="246" depart="24.60" from="24156849#11" to="24161410#1" type="passenger"/>
    <trip id="247" depart="24.70" from="395952459" to="119550151#2" type="passenger"/>
    <trip id="248" depart="24.80" from="100596053#0" to="24293429" type="passenger"/>
    <trip id="249" depart="24.90" from="-24289307#1" to="402014043#5" type="passenger"/>
    <trip id="250" depart="25.00" from="-24214817#0" to="159524342#2" type="passenger"/>
    <trip id="251" depart="25.10" from="-24187186#8" to="-24290138#1" type="passenger"/>
    <trip id="252" depart="25.20" from="gneE49" to="-24214796#9" type="passenger"/>
    <trip id="253" depart="25.30" from="304385373#3" to="24150688#13" type="passenger"/>
    <trip id="254" depart="25.40" from="24293424#6" to="396069373" type="passenger"/>
    <trip id="255" depart="25.50" from="-119550148#3" to="24258429#1" type="passenger"/>
    <trip id="256" depart="25.60" from="-24196638#0" to="24290153#4" type="passenger"/>
    <trip id="257" depart="25.70" from="-24177928#4" to="407473930#0" type="passenger"/>
    <trip id="258" depart="25.80" from="24189955#0" to="242874557#0" type="passenger"/>
    <trip id="259" depart="25.90" from="24206855#4-AddedOffRampEdge" to="177138741#0" type="passenger"/>
    <trip id="260" depart="26.00" from="170175643#5-AddedOnRampEdge" to="-406250030" type="passenger"/>
    <trip id="261" depart="26.10" from="172961271#1" to="-170931391#1" type="passenger"/>
    <trip id="262" depart="26.20" from="-90658043" to="232602200" type="passenger"/>
    <trip id="263" depart="26.30" from="159472071#4" to="26411228#10" type="passenger"/>
    <trip id="264" depart="26.40" from="-340248569#1" to="-161881435#0" type="passenger"/>
    <trip id="265" depart="26.50" from="66419189#1" to="-24167857#2" type="passenger"/>
    <trip id="266" depart="26.60" from="24293430#0" to="-396704154#11" type="passenger"/>
    <trip id="267" depart="26.70" from="26243897#1" to="-24177979#1" type="passenger"/>
    <trip id="268" depart="26.80" from="89783762#0" to="-24293381" type="passenger"/>
    <trip id="269" depart="26.90" from="167719759#8.0" to="318346908#1" type="passenger"/>
    <trip id="270" depart="27.00" from="-396951302#4" to="232767920#0" type="passenger"/>
    <trip id="271" depart="27.10" from="24289428#3" to="-24161410#3" type="passenger"/>
    <trip id="272" depart="27.20" from="26244656#3" to="24157240#1" type="passenger"/>
    <trip id="273" depart="27.30" from="-24167603" to="24160884#1" type="passenger"/>
    <trip id="274" depart="27.40" from="398394926#2" to="286385618" type="passenger"/>
    <trip id="275" depart="27.50" from="24156881#6" to="24161356#7" type="passenger"/>
    <trip id="276" depart="27.60" from="-24165493#2" to="24206874#1" type="passenger"/>
    <trip id="277" depart="27.70" from="432411737#7" to="282224353#20" type="passenger"/>
    <trip id="278" depart="27.80" from="170175643#1" to="-161696421#8" type="passenger"/>
    <trip id="279" depart="27.90" from="437419405#2" to="-170082898#2" type="passenger"/>
    <trip id="280" depart="28.00" from="-24289442#6" to="-24189940#0" type="passenger"/>
    <trip id="281" depart="28.10" from="170082898#5" to="24293407#1" type="passenger"/>
    <trip id="282" depart="28.20" from="27274510#0" to="24161324#2" type="passenger"/>
    <trip id="283" depart="28.30" from="-24206871#7" to="289324044" type="passenger"/>
    <trip id="284" depart="28.40" from="-437419411" to="-24160905#1" type="passenger"/>
    <trip id="285" depart="28.50" from="24256852#1" to="387558809#18" type="passenger"/>
    <trip id="286" depart="28.60" from="310772672#0" to="24206720#2" type="passenger"/>
    <trip id="287" depart="28.70" from="-24161356#0" to="-24167564#3" type="passenger"/>
    <trip id="288" depart="28.80" from="24214795#1" to="399036997#10" type="passenger"/>
    <trip id="289" depart="28.90" from="-24289330#0" to="24177915#4" type="passenger"/>
    <trip id="290" depart="29.00" from="-24290158#1" to="24290209#2" type="passenger"/>
    <trip id="291" depart="29.10" from="397675522" to="432445599#12" type="passenger"/>
    <trip id="292" depart="29.20" from="-400025815#1" to="-24175604#2" type="passenger"/>
    <trip id="293" depart="29.30" from="-24214809#6" to="172830100#9" type="passenger"/>
    <trip id="294" depart="29.40" from="389520950" to="177132011#2" type="passenger"/>
    <trip id="295" depart="29.50" from="24214795#8" to="388327059#0" type="passenger"/>
    <trip id="296" depart="29.60" from="24293404#2" to="-170998738#1" type="passenger"/>
    <trip id="297" depart="29.70" from="381937483#13-AddedOffRampEdge" to="24177991#1" type="passenger"/>
    <trip id="298" depart="29.80" from="327551729#1.49" to="396951291#2.0" type="passenger"/>
    <trip id="299" depart="29.90" from="405359316#4" to="-24257418" type="passenger"/>
    <trip id="300" depart="30.00" from="260888733#3" to="-396951289#1" type="passenger"/>
    <trip id="301" depart="30.10" from="24290159#2" to="-24293390" type="passenger"/>
    <trip id="302" depart="30.20" from="434473837#4" to="-177797299#0" type="passenger"/>
    <trip id="303" depart="30.30" from="255434097#0" to="-24206891#1" type="passenger"/>
    <trip id="304" depart="30.40" from="-392300809#0" to="24257150#4" type="passenger"/>
    <trip id="305" depart="30.50" from="-399293574#0" to="282224355#4" type="passenger"/>
    <trip id="306" depart="30.60" from="-24206960#3" to="387558809#9-AddedOffRampEdge" type="passenger"/>
    <trip id="307" depart="30.70" from="24164686#1" to="395023334#1" type="passenger"/>
    <trip id="308" depart="30.80" from="24290783#4" to="286632139#1" type="passenger"/>
    <trip id="309" depart="30.90" from="24164323#0" to="24289159#0" type="passenger"/>
    <trip id="310" depart="31.00" from="227751888#4" to="318274914#28" type="passenger"/>
    <trip id="311" depart="31.10" from="24167836#1" to="282224348#16" type="passenger"/>
    <trip id="312" depart="31.20" from="232602206#1" to="399698464" type="passenger"/>
    <trip id="313" depart="31.30" from="-24161415#2" to="159479212#7" type="passenger"/>
    <trip id="314" depart="31.40" from="320626921#5" to="91392672#1" type="passenger"/>
    <trip id="315" depart="31.50" from="89783744#7" to="398394926#1" type="passenger"/>
    <trip id="316" depart="31.60" from="gneE76" to="434371436#5" type="passenger"/>
    <trip id="317" depart="31.70" from="310772678#3" to="163573468" type="passenger"/>
    <trip id="318" depart="31.80" from="-24293407#8" to="248304206#1" type="passenger"/>
    <trip id="319" depart="31.90" from="304382252#4" to="27374689#0" type="passenger"/>
    <trip id="320" depart="32.00" from="100971979#0" to="-416628640" type="passenger"/>
    <trip id="321" depart="32.10" from="24290781#1" to="-386929568#2" type="passenger"/>
    <trip id="322" depart="32.20" from="398394922#3" to="392926764#2" type="passenger"/>
    <trip id="323" depart="32.30" from="432411739#2" to="141177032" type="passenger"/>
    <trip id="324" depart="32.40" from="170998243#2" to="172827113#0" type="passenger"/>
    <trip id="325" depart="32.50" from="24290178#0" to="77980872#2" type="passenger"/>
    <trip id="326" depart="32.60" from="388328605" to="-66017838" type="passenger"/>
    <trip id="327" depart="32.70" from="-389916727#3" to="170175527" type="passenger"/>
    <trip id="328" depart="32.80" from="24206960#7" to="24177226#4" type="passenger"/>
    <trip id="329" depart="32.90" from="318298219#8" to="392919861" type="passenger"/>
    <trip id="330" depart="33.00" from="-24161715#1" to="282213714#8" type="passenger"/>
    <trip id="331" depart="33.10" from="24156870#3-AddedOffRampEdge" to="24197116#1" type="passenger"/>