<?xml version='1.0' encoding='UTF-8'?>
<edges xmlns:xsi="http://www.w3.org/2001/XMLSchema-instance" version="0.27" xsi:noNamespaceSchemaLocation="http://sumo.dlr.de/xsd/edges_file.xsd">
    <edge disallow="tram rail_urban rail rail_electric ship" dump_speed="9.74" from="node_00x00" id="xedge_00x00" len="100.0" numLanes="1" priority="5" slowdown="4.15" slowdown_ratio="0.298776097912" speed="13.89" to="node_00x01" type="highway.undefined" />
    <edge disallow="tram rail_urban rail rail_electric ship" dump_speed="10.23" from="node_00x01" id="xedge_00x01" len="100.0" numLanes="1" priority="5" slowdown="3.66" slowdown_ratio="0.263498920086" speed="13.89" to="node_00x00" type="highway.undefined" />
    <edge disallow="tram rail_urban rail rail_electric ship" dump_speed="10.45" from="node_00x01" id="xedge_00x02" len="100.0" numLanes="1" priority="5" slowdown="3.44" slowdown_ratio="0.247660187185" speed="13.89" to="node_00x02" type="highway.undefined" />
    <edge disallow="tram rail_urban rail rail_electric ship" dump_speed="10.04" from="node_00x02" id="xedge_00x03" len="100.0" numLanes="1" priority="5" slowdown="3.85" slowdown_ratio="0.277177825774" speed="13.89" to="node_00x01" type="highway.undefined" />
    <edge disallow="tram rail_urban rail rail_electric ship" dump_speed="9.79" from="node_00x02" id="xedge_00x04" len="100.0" numLanes="1" priority="5" slowdown="4.1" slowdown_ratio="0.295176385889" speed="13.89" to="node_00x03" type="highway.undefined" />
    <edge disallow="tram rail_urban rail rail_electric ship" dump_speed="10.56" from="node_00x03" id="xedge_00x05" len="100.0" numLanes="1" priority="5" slowdown="3.33" slowdown_ratio="0.239740820734" speed="13.89" to="node_00x02" type="highway.undefined" />
    <edge disallow="tram rail_urban rail rail_electric ship" dump_speed="10.15" from="node_00x03" id="xedge_00x06" len="100.0" numLanes="1" priority="5" slowdown="3.74" slowdown_ratio="0.269258459323" speed="13.89" to="node_00x04" type="highway.undefined" />
    <edge disallow="tram rail_urban rail rail_electric ship" dump_speed="10.34" from="node_00x04" id="xedge_00x07" len="100.0" numLanes="1" priority="5" slowdown="3.55" slowdown_ratio="0.255579553636" speed="13.89" to="node_00x03" type="highway.undefined" />
    <edge disallow="tram rail_urban rail rail_electric ship" dump_speed="10.47" from="node_00x04" id="xedge_00x08" len="100.0" numLanes="1" priority="5" slowdown="3.42" slowdown_ratio="0.246220302376" speed="13.89" to="node_00x05" type="highway.undefined" />
    <edge disallow="tram rail_urban rail rail_electric ship" dump_speed="10.39" from="node_00x05" id="xedge_00x09" len="100.0" numLanes="1" priority="5" slowdown="3.5" slowdown_ratio="0.251979841613" speed="13.89" to="node_00x04" type="highway.undefined" />
    <edge disallow="tram rail_urban rail rail_electric ship" dump_speed="10.31" from="node_00x05" id="xedge_00x10" len="100.0" numLanes="1" priority="5" slowdown="3.58" slowdown_ratio="0.25773938085" speed="13.89" to="node_00x06" type="highway.undefined" />
    <edge disallow="tram rail_urban rail rail_electric ship" dump_speed="10.36" from="node_00x06" id="xedge_00x11" len="100.0" numLanes="1" priority="5" slowdown="3.53" slowdown_ratio="0.254139668826" speed="13.89" to="node_00x05" type="highway.undefined" />
    <edge disallow="tram rail_urban rail rail_electric ship" dump_speed="10.5" from="node_00x06" id="xedge_00x12" len="100.0" numLanes="1" priority="5" slowdown="3.39" slowdown_ratio="0.244060475162" speed="13.89" to="node_00x07" type="highway.undefined" />
    <edge disallow="tram rail_urban rail rail_electric ship" dump_speed="10.58" from="node_00x07" id="xedge_00x13" len="100.0" numLanes="1" priority="5" slowdown="3.31" slowdown_ratio="0.238300935925" speed="13.89" to="node_00x06" type="highway.undefined" />
    <edge disallow="tram rail_urban rail rail_electric ship" dump_speed="10.24" from="node_00x07" id="xedge_00x14" len="100.0" numLanes="1" priority="5" slowdown="3.65" slowdown_ratio="0.262778977682" speed="13.89" to="node_00x08" type="highway.undefined" />
    <edge disallow="tram rail_urban rail rail_electric ship" dump_speed="10.71" from="node_00x08" id="xedge_00x15" len="100.0" numLanes="1" priority="5" slowdown="3.18" slowdown_ratio="0.228941684665" speed="13.89" to="node_00x07" type="highway.undefined" />
    <edge disallow="tram rail_urban rail rail_electric ship" dump_speed="10.19" from="node_00x08" id="xedge_00x16" len="100.0" numLanes="1" priority="5" slowdown="3.7" slowdown_ratio="0.266378689705" speed="13.89" to="node_00x09" type="highway.undefined" />
    <edge disallow="tram rail_urban rail rail_electric ship" dump_speed="10.66" from="node_00x09" id="xedge_00x17" len="100.0" numLanes="1" priority="5" slowdown="3.23" slowdown_ratio="0.232541396688" speed="13.89" to="node_00x08" type="highway.undefined" />
    <edge disallow="tram rail_urban rail rail_electric ship" dump_speed="10.32" from="node_00x09" id="xedge_00x18" len="100.0" numLanes="1" priority="5" slowdown="3.57" slowdown_ratio="0.257019438445" speed="13.89" to="node_00x10" type="highway.undefined" />
    <edge disallow="tram rail_urban rail rail_electric ship" dump_speed="10.52" from="node_00x10" id="xedge_00x19" len="100.0" numLanes="1" priority="5" slowdown="3.37" slowdown_ratio="0.242620590353" speed="13.89" to="node_00x09" type="highway.undefined" />
    <edge disallow="tram rail_urban rail rail_electric ship" dump_speed="10.3" from="node_00x10" id="xedge_00x20" len="100.0" numLanes="1" priority="5" slowdown="3.59" slowdown_ratio="0.258459323254" speed="13.89" to="node_00x11" type="highway.undefined" />
    <edge disallow="tram rail_urban rail rail_electric ship" dump_speed="10.81" from="node_00x11" id="xedge_00x21" len="100.0" numLanes="1" priority="5" slowdown="3.08" slowdown_ratio="0.221742260619" speed="13.89" to="node_00x10" type="highway.undefined" />
    <edge disallow="tram rail_urban rail rail_electric ship" dump_speed="10.28" from="node_00x11" id="xedge_00x22" len="100.0" numLanes="1" priority="5" slowdown="3.61" slowdown_ratio="0.259899208063" speed="13.89" to="node_00x12" type="highway.undefined" />
    <edge disallow="tram rail_urban rail rail_electric ship" dump_speed="10.79" from="node_00x12" id="xedge_00x23" len="100.0" numLanes="1" priority="5" slowdown="3.1" slowdown_ratio="0.223182145428" speed="13.89" to="node_00x11" type="highway.undefined" />
    <edge disallow="tram rail_urban rail rail_electric ship" dump_speed="10.17" from="node_00x12" id="xedge_00x24" len="100.0" numLanes="1" priority="5" slowdown="3.72" slowdown_ratio="0.267818574514" speed="13.89" to="node_00x13" type="highway.undefined" />
    <edge disallow="tram rail_urban rail rail_electric ship" dump_speed="10.49" from="node_00x13" id="xedge_00x25" len="100.0" numLanes="1" priority="5" slowdown="3.4" slowdown_ratio="0.244780417567" speed="13.89" to="node_00x12" type="highway.undefined" />
    <edge disallow="tram rail_urban rail rail_electric ship" dump_speed="10.36" from="node_00x13" id="xedge_00x26" len="100.0" numLanes="1" priority="5" slowdown="3.53" slowdown_ratio="0.254139668826" speed="13.89" to="node_00x14" type="highway.undefined" />
    <edge disallow="tram rail_urban rail rail_electric ship" dump_speed="10.39" from="node_00x14" id="xedge_00x27" len="100.0" numLanes="1" priority="5" slowdown="3.5" slowdown_ratio="0.251979841613" speed="13.89" to="node_00x13" type="highway.undefined" />
    <edge disallow="tram rail_urban rail rail_electric ship" dump_speed="10.49" from="node_00x14" id="xedge_00x28" len="100.0" numLanes="1" priority="5" slowdown="3.4" slowdown_ratio="0.244780417567" speed="13.89" to="node_00x15" type="highway.undefined" />
    <edge disallow="tram rail_urban rail rail_electric ship" dump_speed="10.68" from="node_00x15" id="xedge_00x29" len="100.0" numLanes="1" priority="5" slowdown="3.21" slowdown_ratio="0.231101511879" speed="13.89" to="node_00x14" type="highway.undefined" />
    <edge disallow="tram rail_urban rail rail_electric ship" dump_speed="10.5" from="node_00x15" id="xedge_00x30" len="100.0" numLanes="1" priority="5" slowdown="3.39" slowdown_ratio="0.244060475162" speed="13.89" to="node_00x16" type="highway.undefined" />
    <edge disallow="tram rail_urban rail rail_electric ship" dump_speed="10.49" from="node_00x16" id="xedge_00x31" len="100.0" numLanes="1" priority="5" slowdown="3.4" slowdown_ratio="0.244780417567" speed="13.89" to="node_00x15" type="highway.undefined" />
    <edge disallow="tram rail_urban rail rail_electric ship" dump_speed="10.5" from="node_00x16" id="xedge_00x32" len="100.0" numLanes="1" priority="5" slowdown="3.39" slowdown_ratio="0.244060475162" speed="13.89" to="node_00x17" type="highway.undefined" />
    <edge disallow="tram rail_urban rail rail_electric ship" dump_speed="10.5" from="node_00x17" id="xedge_00x33" len="100.0" numLanes="1" priority="5" slowdown="3.39" slowdown_ratio="0.244060475162" speed="13.89" to="node_00x16" type="highway.undefined" />
    <edge disallow="tram rail_urban rail rail_electric ship" dump_speed="10.44" from="node_00x17" id="xedge_00x34" len="100.0" numLanes="1" priority="5" slowdown="3.45" slowdown_ratio="0.24838012959" speed="13.89" to="node_00x18" type="highway.undefined" />
    <edge disallow="tram rail_urban rail rail_electric ship" dump_speed="10.51" from="node_00x18" id="xedge_00x35" len="100.0" numLanes="1" priority="5" slowdown="3.38" slowdown_ratio="0.243340532757" speed="13.89" to="node_00x17" type="highway.undefined" />
    <edge disallow="tram rail_urban rail rail_electric ship" dump_speed="10.48" from="node_00x18" id="xedge_00x36" len="100.0" numLanes="1" priority="5" slowdown="3.41" slowdown_ratio="0.245500359971" speed="13.89" to="node_00x19" type="highway.undefined" />
    <edge disallow="tram rail_urban rail rail_electric ship" dump_speed="10.61" from="node_00x19" id="xedge_00x37" len="100.0" numLanes="1" priority="5" slowdown="3.28" slowdown_ratio="0.236141108711" speed="13.89" to="node_00x18" type="highway.undefined" />
    <edge disallow="tram rail_urban rail rail_electric ship" dump_speed="10.7" from="node_00x19" id="xedge_00x38" len="100.0" numLanes="1" priority="5" slowdown="3.19" slowdown_ratio="0.22966162707" speed="13.89" to="node_00x20" type="highway.undefined" />
    <edge disallow="tram rail_urban rail rail_electric ship" dump_speed="10.78" from="node_00x20" id="xedge_00x39" len="100.0" numLanes="1" priority="5" slowdown="3.11" slowdown_ratio="0.223902087833" speed="13.89" to="node_00x19" type="highway.undefined" />
    <edge disallow="tram rail_urban rail rail_electric ship" dump_speed="10.03" from="node_01x00" id="xedge_01x00" len="100.0" numLanes="1" priority="5" slowdown="3.86" slowdown_ratio="0.277897768179" speed="13.89" to="node_01x01" type="highway.undefined" />
    <edge disallow="tram rail_urban rail rail_electric ship" dump_speed="9.95" from="node_01x01" id="xedge_01x01" len="100.0" numLanes="1" priority="5" slowdown="3.94" slowdown_ratio="0.283657307415" speed="13.89" to="node_01x00" type="highway.undefined" />
    <edge disallow="tram rail_urban rail rail_electric ship" dump_speed="10.06" from="node_01x01" id="xedge_01x02" len="100.0" numLanes="1" priority="5" slowdown="3.83" slowdown_ratio="0.275737940965" speed="13.89" to="node_01x02" type="highway.undefined" />
    <edge disallow="tram rail_urban rail rail_electric ship" dump_speed="10.09" from="node_01x02" id="xedge_01x03" len="100.0" numLanes="1" priority="5" slowdown="3.8" slowdown_ratio="0.273578113751" speed="13.89" to="node_01x01" type="highway.undefined" />
    <edge disallow="tram rail_urban rail rail_electric ship" dump_speed="9.87" from="node_01x02" id="xedge_01x04" len="100.0" numLanes="1" priority="5" slowdown="4.02" slowdown_ratio="0.289416846652" speed="13.89" to="node_01x03" type="highway.undefined" />
    <edge disallow="tram rail_urban rail rail_electric ship" dump_speed="10.37" from="node_01x03" id="xedge_01x05" len="100.0" numLanes="1" priority="5" slowdown="3.52" slowdown_ratio="0.253419726422" speed="13.89" to="node_01x02" type="highway.undefined" />
    <edge disallow="tram rail_urban rail rail_electric ship" dump_speed="9.85" from="node_01x03" id="xedge_01x06" len="100.0" numLanes="1" priority="5" slowdown="4.04" slowdown_ratio="0.290856731461" speed="13.89" to="node_01x04" type="highway.undefined" />
    <edge disallow="tram rail_urban rail rail_electric ship" dump_speed="10.27" from="node_01x04" id="xedge_01x07" len="100.0" numLanes="1" priority="5" slowdown="3.62" slowdown_ratio="0.260619150468" speed="13.89" to="node_01x03" type="highway.undefined" />
    <edge disallow="tram rail_urban rail rail_electric ship" dump_speed="9.52" from="node_01x04" id="xedge_01x08" len="100.0" numLanes="1" priority="5" slowdown="4.37" slowdown_ratio="0.314614830814" speed="13.89" to="node_01x05" type="highway.undefined" />
    <edge disallow="tram rail_urban rail rail_electric ship" dump_speed="9.68" from="node_01x05" id="xedge_01x09" len="100.0" numLanes="1" priority="5" slowdown="4.21" slowdown_ratio="0.30309575234" speed="13.89" to="node_01x04" type="highway.undefined" />
    <edge disallow="tram rail_urban rail rail_electric ship" dump_speed="9.46" from="node_01x05" id="xedge_01x10" len="100.0" numLanes="1" priority="5" slowdown="4.43" slowdown_ratio="0.318934485241" speed="13.89" to="node_01x06" type="highway.undefined" />
    <edge disallow="tram rail_urban rail rail_electric ship" dump_speed="10.1" from="node_01x06" id="xedge_01x11" len="100.0" numLanes="1" priority="5" slowdown="3.79" slowdown_ratio="0.272858171346" speed="13.89" to="node_01x05" type="highway.undefined" />
    <edge disallow="tram rail_urban rail rail_electric ship" dump_speed="9.78" from="node_01x06" id="xedge_01x12" len="100.0" numLanes="1" priority="5" slowdown="4.11" slowdown_ratio="0.295896328294" speed="13.89" to="node_01x07" type="highway.undefined" />
    <edge disallow="tram rail_urban rail rail_electric ship" dump_speed="10.2" from="node_01x07" id="xedge_01x13" len="100.0" numLanes="1" priority="5" slowdown="3.69" slowdown_ratio="0.2656587473" speed="13.89" to="node_01x06" type="highway.undefined" />
    <edge disallow="tram rail_urban rail rail_electric ship" dump_speed="9.02" from="node_01x07" id="xedge_01x14" len="100.0" numLanes="1" priority="5" slowdown="4.87" slowdown_ratio="0.350611951044" speed="13.89" to="node_01x08" type="highway.undefined" />
    <edge disallow="tram rail_urban rail rail_electric ship" dump_speed="9.83" from="node_01x08" id="xedge_01x15" len="100.0" numLanes="1" priority="5" slowdown="4.06" slowdown_ratio="0.292296616271" speed="13.89" to="node_01x07" type="highway.undefined" />
    <edge disallow="tram rail_urban rail rail_electric ship" dump_speed="9.41" from="node_01x08" id="xedge_01x16" len="100.0" numLanes="1" priority="5" slowdown="4.48" slowdown_ratio="0.322534197264" speed="13.89" to="node_01x09" type="highway.undefined" />
    <edge disallow="tram rail_urban rail rail_electric ship" dump_speed="10.03" from="node_01x09" id="xedge_01x17" len="100.0" numLanes="1" priority="5" slowdown="3.86" slowdown_ratio="0.277897768179" speed="13.89" to="node_01x08" type="highway.undefined" />
    <edge disallow="tram rail_urban rail rail_electric ship" dump_speed="9.53" from="node_01x09" id="xedge_01x18" len="100.0" numLanes="1" priority="5" slowdown="4.36" slowdown_ratio="0.313894888409" speed="13.89" to="node_01x10" type="highway.undefined" />
    <edge disallow="tram rail_urban rail rail_electric ship" dump_speed="9.43" from="node_01x10" id="xedge_01x19" len="100.0" numLanes="1" priority="5" slowdown="4.46" slowdown_ratio="0.321094312455" speed="13.89" to="node_01x09" type="highway.undefined" />
    <edge disallow="tram rail_urban rail rail_electric ship" dump_speed="9.34" from="node_01x10" id="xedge_01x20" len="100.0" numLanes="1" priority="5" slowdown="4.55" slowdown_ratio="0.327573794096" speed="13.89" to="node_01x11" type="highway.undefined" />
    <edge disallow="tram rail_urban rail rail_electric ship" dump_speed="9.62" from="node_01x11" id="xedge_01x21" len="100.0" numLanes="1" priority="5" slowdown="4.27" slowdown_ratio="0.307415406767" speed="13.89" to="node_01x10" type="highway.undefined" />
    <edge disallow="tram rail_urban rail rail_electric ship" dump_speed="9.89" from="node_01x11" id="xedge_01x22" len="100.0" numLanes="1" priority="5" slowdown="4.0" slowdown_ratio="0.287976961843" speed="13.89" to="node_01x12" type="highway.undefined" />
    <edge disallow="tram rail_urban rail rail_electric ship" dump_speed="9.72" from="node_01x12" id="xedge_01x23" len="100.0" numLanes="1" priority="5" slowdown="4.17" slowdown_ratio="0.300215982721" speed="13.89" to="node_01x11" type="highway.undefined" />
    <edge disallow="tram rail_urban rail rail_electric ship" dump_speed="9.38" from="node_01x12" id="xedge_01x24" len="100.0" numLanes="1" priority="5" slowdown="4.51" slowdown_ratio="0.324694024478" speed="13.89" to="node_01x13" type="highway.undefined" />
    <edge disallow="tram rail_urban rail rail_electric ship" dump_speed="9.53" from="node_01x13" id="xedge_01x25" len="100.0" numLanes="1" priority="5" slowdown="4.36" slowdown_ratio="0.313894888409" speed="13.89" to="node_01x12" type="highway.undefined" />
    <edge disallow="tram rail_urban rail rail_electric ship" dump_speed="9.49" from="node_01x13" id="xedge_01x26" len="100.0" numLanes="1" priority="5" slowdown="4.4" slowdown_ratio="0.316774658027" speed="13.89" to="node_01x14" type="highway.undefined" />
    <edge disallow="tram rail_urban rail rail_electric ship" dump_speed="9.32" from="node_01x14" id="xedge_01x27" len="100.0" numLanes="1" priority="5" slowdown="4.57" slowdown_ratio="0.329013678906" speed="13.89" to="node_01x13" type="highway.undefined" />
    <edge disallow="tram rail_urban rail rail_electric ship" dump_speed="9.63" from="node_01x14" id="xedge_01x28" len="100.0" numLanes="1" priority="5" slowdown="4.26" slowdown_ratio="0.306695464363" speed="13.89" to="node_01x15" type="highway.undefined" />
    <edge disallow="tram rail_urban rail rail_electric ship" dump_speed="9.78" from="node_01x15" id="xedge_01x29" len="100.0" numLanes="1" priority="5" slowdown="4.11" slowdown_ratio="0.295896328294" speed="13.89" to="node_01x14" type="highway.undefined" />
    <edge disallow="tram rail_urban rail rail_electric ship" dump_speed="9.98" from="node_01x15" id="xedge_01x30" len="100.0" numLanes="1" priority="5" slowdown="3.91" slowdown_ratio="0.281497480202" speed="13.89" to="node_01x16" type="highway.undefined" />
    <edge disallow="tram rail_urban rail rail_electric ship" dump_speed="9.66" from="node_01x16" id="xedge_01x31" len="100.0" numLanes="1" priority="5" slowdown="4.23" slowdown_ratio="0.304535637149" speed="13.89" to="node_01x15" type="highway.undefined" />
    <edge disallow="tram rail_urban rail rail_electric ship" dump_speed="9.82" from="node_01x16" id="xedge_01x32" len="100.0" numLanes="1" priority="5" slowdown="4.07" slowdown_ratio="0.293016558675" speed="13.89" to="node_01x17" type="highway.undefined" />
    <edge disallow="tram rail_urban rail rail_electric ship" dump_speed="9.65" from="node_01x17" id="xedge_01x33" len="100.0" numLanes="1" priority="5" slowdown="4.24" slowdown_ratio="0.305255579554" speed="13.89" to="node_01x16" type="highway.undefined" />
    <edge disallow="tram rail_urban rail rail_electric ship" dump_speed="10.25" from="node_01x17" id="xedge_01x34" len="100.0" numLanes="1" priority="5" slowdown="3.64" slowdown_ratio="0.262059035277" speed="13.89" to="node_01x18" type="highway.undefined" />
    <edge disallow="tram rail_urban rail rail_electric ship" dump_speed="9.93" from="node_01x18" id="xedge_01x35" len="100.0" numLanes="1" priority="5" slowdown="3.96" slowdown_ratio="0.285097192225" speed="13.89" to="node_01x17" type="highway.undefined" />
    <edge disallow="tram rail_urban rail rail_electric ship" dump_speed="10.31" from="node_01x18" id="xedge_01x36" len="100.0" numLanes="1" priority="5" slowdown="3.58" slowdown_ratio="0.25773938085" speed="13.89" to="node_01x19" type="highway.undefined" />
    <edge disallow="tram rail_urban rail rail_electric ship" dump_speed="10.11" from="node_01x19" id="xedge_01x37" len="100.0" numLanes="1" priority="5" slowdown="3.78" slowdown_ratio="0.272138228942" speed="13.89" to="node_01x18" type="highway.undefined" />
    <edge disallow="tram rail_urban rail rail_electric ship" dump_speed="10.46" from="node_01x19" id="xedge_01x38" len="100.0" numLanes="1" priority="5" slowdown="3.43" slowdown_ratio="0.24694024478" speed="13.89" to="node_01x20" type="highway.undefined" />
    <edge disallow="tram rail_urban rail rail_electric ship" dump_speed="10.08" from="node_01x20" id="xedge_01x39" len="100.0" numLanes="1" priority="5" slowdown="3.81" slowdown_ratio="0.274298056156" speed="13.89" to="node_01x19" type="highway.undefined" />
    <edge disallow="tram rail_urban rail rail_electric ship" dump_speed="9.63" from="node_02x00" id="xedge_02x00" len="100.0" numLanes="1" priority="5" slowdown="4.26" slowdown_ratio="0.306695464363" speed="13.89" to="node_02x01" type="highway.undefined" />
    <edge disallow="tram rail_urban rail rail_electric ship" dump_speed="10.28" from="node_02x01" id="xedge_02x01" len="100.0" numLanes="1" priority="5" slowdown="3.61" slowdown_ratio="0.259899208063" speed="13.89" to="node_02x00" type="highway.undefined" />
    <edge disallow="tram rail_urban rail rail_electric ship" dump_speed="9.5" from="node_02x01" id="xedge_02x02" len="100.0" numLanes="1" priority="5" slowdown="4.39" slowdown_ratio="0.316054715623" speed="13.89" to="node_02x02" type="highway.undefined" />
    <edge disallow="tram rail_urban rail rail_electric ship" dump_speed="10.26" from="node_02x02" id="xedge_02x03" len="100.0" numLanes="1" priority="5" slowdown="3.63" slowdown_ratio="0.261339092873" speed="13.89" to="node_02x01" type="highway.undefined" />
    <edge disallow="tram rail_urban rail rail_electric ship" dump_speed="9.74" from="node_02x02" id="xedge_02x04" len="100.0" numLanes="1" priority="5" slowdown="4.15" slowdown_ratio="0.298776097912" speed="13.89" to="node_02x03" type="highway.undefined" />
    <edge disallow="tram rail_urban rail rail_electric ship" dump_speed="10.43" from="node_02x03" id="xedge_02x05" len="100.0" numLanes="1" priority="5" slowdown="3.46" slowdown_ratio="0.249100071994" speed="13.89" to="node_02x02" type="highway.undefined" />
    <edge disallow="tram rail_urban rail rail_electric ship" dump_speed="9.75" from="node_02x03" id="xedge_02x06" len="100.0" numLanes="1" priority="5" slowdown="4.14" slowdown_ratio="0.298056155508" speed="13.89" to="node_02x04" type="highway.undefined" />
    <edge disallow="tram rail_urban rail rail_electric ship" dump_speed="9.46" from="node_02x04" id="xedge_02x07" len="100.0" numLanes="1" priority="5" slowdown="4.43" slowdown_ratio="0.318934485241" speed="13.89" to="node_02x03" type="highway.undefined" />
    <edge disallow="tram rail_urban rail rail_electric ship" dump_speed="9.56" from="node_02x04" id="xedge_02x08" len="100.0" numLanes="1" priority="5" slowdown="4.33" slowdown_ratio="0.311735061195" speed="13.89" to="node_02x05" type="highway.undefined" />
    <edge disallow="tram rail_urban rail rail_electric ship" dump_speed="9.42" from="node_02x05" id="xedge_02x09" len="100.0" numLanes="1" priority="5" slowdown="4.47" slowdown_ratio="0.32181425486" speed="13.89" to="node_02x04" type="highway.undefined" />
    <edge disallow="tram rail_urban rail rail_electric ship" dump_speed="9.32" from="node_02x05" id="xedge_02x10" len="100.0" numLanes="1" priority="5" slowdown="4.57" slowdown_ratio="0.329013678906" speed="13.89" to="node_02x06" type="highway.undefined" />
    <edge disallow="tram rail_urban rail rail_electric ship" dump_speed="9.18" from="node_02x06" id="xedge_02x11" len="100.0" numLanes="1" priority="5" slowdown="4.71" slowdown_ratio="0.33909287257" speed="13.89" to="node_02x05" type="highway.undefined" />
    <edge disallow="tram rail_urban rail rail_electric ship" dump_speed="9.18" from="node_02x06" id="xedge_02x12" len="100.0" numLanes="1" priority="5" slowdown="4.71" slowdown_ratio="0.33909287257" speed="13.89" to="node_02x07" type="highway.undefined" />
    <edge disallow="tram rail_urban rail rail_electric ship" dump_speed="9.1" from="node_02x07" id="xedge_02x13" len="100.0" numLanes="1" priority="5" slowdown="4.79" slowdown_ratio="0.344852411807" speed="13.89" to="node_02x06" type="highway.undefined" />
    <edge disallow="tram rail_urban rail rail_electric ship" dump_speed="8.83" from="node_02x07" id="xedge_02x14" len="100.0" numLanes="1" priority="5" slowdown="5.06" slowdown_ratio="0.364290856731" speed="13.89" to="node_02x08" type="highway.undefined" />
    <edge disallow="tram rail_urban rail rail_electric ship" dump_speed="9.23" from="node_02x08" id="xedge_02x15" len="100.0" numLanes="1" priority="5" slowdown="4.66" slowdown_ratio="0.335493160547" speed="13.89" to="node_02x07" type="highway.undefined" />
    <edge disallow="tram rail_urban rail rail_electric ship" dump_speed="8.73" from="node_02x08" id="xedge_02x16" len="100.0" numLanes="1" priority="5" slowdown="5.16" slowdown_ratio="0.371490280778" speed="13.89" to="node_02x09" type="highway.undefined" />
    <edge disallow="tram rail_urban rail rail_electric ship" dump_speed="9.22" from="node_02x09" id="xedge_02x17" len="100.0" numLanes="1" priority="5" slowdown="4.67" slowdown_ratio="0.336213102952" speed="13.89" to="node_02x08" type="highway.undefined" />
    <edge disallow="tram rail_urban rail rail_electric ship" dump_speed="9.61" from="node_02x09" id="xedge_02x18" len="100.0" numLanes="1" priority="5" slowdown="4.28" slowdown_ratio="0.308135349172" speed="13.89" to="node_02x10" type="highway.undefined" />
    <edge disallow="tram rail_urban rail rail_electric ship" dump_speed="8.67" from="node_02x10" id="xedge_02x19" len="100.0" numLanes="1" priority="5" slowdown="5.22" slowdown_ratio="0.375809935205" speed="13.89" to="node_02x09" type="highway.undefined" />
    <edge disallow="tram rail_urban rail rail_electric ship" dump_speed="8.28" from="node_02x10" id="xedge_02x20" len="100.0" numLanes="1" priority="5" slowdown="5.61" slowdown_ratio="0.403887688985" speed="13.89" to="node_02x11" type="highway.undefined" />
    <edge disallow="tram rail_urban rail rail_electric ship" dump_speed="9.1" from="node_02x11" id="xedge_02x21" len="100.0" numLanes="1" priority="5" slowdown="4.79" slowdown_ratio="0.344852411807" speed="13.89" to="node_02x10" type="highway.undefined" />
    <edge disallow="tram rail_urban rail rail_electric ship" dump_speed="8.62" from="node_02x11" id="xedge_02x22" len="100.0" numLanes="1" priority="5" slowdown="5.27" slowdown_ratio="0.379409647228" speed="13.89" to="node_02x12" type="highway.undefined" />
    <edge disallow="tram rail_urban rail rail_electric ship" dump_speed="9.7" from="node_02x12" id="xedge_02x23" len="100.0" numLanes="1" priority="5" slowdown="4.19" slowdown_ratio="0.301655867531" speed="13.89" to="node_02x11" type="highway.undefined" />
    <edge disallow="tram rail_urban rail rail_electric ship" dump_speed="9.23" from="node_02x12" id="xedge_02x24" len="100.0" numLanes="1" priority="5" slowdown="4.66" slowdown_ratio="0.335493160547" speed="13.89" to="node_02x13" type="highway.undefined" />
    <edge disallow="tram rail_urban rail rail_electric ship" dump_speed="9.26" from="node_02x13" id="xedge_02x25" len="100.0" numLanes="1" priority="5" slowdown="4.63" slowdown_ratio="0.333333333333" speed="13.89" to="node_02x12" type="highway.undefined" />
    <edge disallow="tram rail_urban rail rail_electric ship" dump_speed="9.1" from="node_02x13" id="xedge_02x26" len="100.0" numLanes="1" priority="5" slowdown="4.79" slowdown_ratio="0.344852411807" speed="13.89" to="node_02x14" type="highway.undefined" />
    <edge disallow="tram rail_urban rail rail_electric ship" dump_speed="9.51" from="node_02x14" id="xedge_02x27" len="100.0" numLanes="1" priority="5" slowdown="4.38" slowdown_ratio="0.315334773218" speed="13.89" to="node_02x13" type="highway.undefined" />
    <edge disallow="tram rail_urban rail rail_electric ship" dump_speed="9.31" from="node_02x14" id="xedge_02x28" len="100.0" numLanes="1" priority="5" slowdown="4.58" slowdown_ratio="0.32973362131" speed="13.89" to="node_02x15" type="highway.undefined" />
    <edge disallow="tram rail_urban rail rail_electric ship" dump_speed="9.22" from="node_02x15" id="xedge_02x29" len="100.0" numLanes="1" priority="5" slowdown="4.67" slowdown_ratio="0.336213102952" speed="13.89" to="node_02x14" type="highway.undefined" />
    <edge disallow="tram rail_urban rail rail_electric ship" dump_speed="9.17" from="node_02x15" id="xedge_02x30" len="100.0" numLanes="1" priority="5" slowdown="4.72" slowdown_ratio="0.339812814975" speed="13.89" to="node_02x16" type="highway.undefined" />
    <edge disallow="tram rail_urban rail rail_electric ship" dump_speed="8.88" from="node_02x16" id="xedge_02x31" len="100.0" numLanes="1" priority="5" slowdown="5.01" slowdown_ratio="0.360691144708" speed="13.89" to="node_02x15" type="highway.undefined" />
    <edge disallow="tram rail_urban rail rail_electric ship" dump_speed="9.55" from="node_02x16" id="xedge_02x32" len="100.0" numLanes="1" priority="5" slowdown="4.34" slowdown_ratio="0.3124550036" speed="13.89" to="node_02x17" type="highway.undefined" />
    <edge disallow="tram rail_urban rail rail_electric ship" dump_speed="9.41" from="node_02x17" id="xedge_02x33" len="100.0" numLanes="1" priority="5" slowdown="4.48" slowdown_ratio="0.322534197264" speed="13.89" to="node_02x16" type="highway.undefined" />
    <edge disallow="tram rail_urban rail rail_electric ship" dump_speed="9.71" from="node_02x17" id="xedge_02x34" len="100.0" numLanes="1" priority="5" slowdown="4.18" slowdown_ratio="0.300935925126" speed="13.89" to="node_02x18" type="highway.undefined" />