<?xml version="1.0" encoding="UTF-8"?>

<!-- generated on 02/05/17 11:13:31 by SUMO netconvert Version 0.27.1
<?xml version="1.0" encoding="UTF-8"?>

<configuration xmlns:xsi="http://www.w3.org/2001/XMLSchema-instance" xsi:noNamespaceSchemaLocation="http://sumo.dlr.de/xsd/netconvertConfiguration.xsd">

    <input>
        <node-files value="C:\Users\zs633\capstone\11_convex\test_random\7_displaced\linear.nod.xml"/>
        <edge-files value="C:\Users\zs633\capstone\11_convex\test_random\7_displaced\linear.edg.xml"/>
        <connection-files value="C:\Users\zs633\capstone\11_convex\test_random\4_plain\test.con.xml"/>
        <tllogic-files value="C:\Users\zs633\capstone\11_convex\test_random\4_plain\test.tll.xml"/>
    </input>

    <output>
        <output-file value="C:\Users\zs633\capstone\11_convex\test_random\9_output_net\linear.net.xml"/>
    </output>

    <processing>
        <ignore-errors value="true"/>
        <ignore-errors.edge-type value="true"/>
    </processing>

    <report>
        <verbose value="true"/>
        <xml-validation value="never"/>
        <no-warnings value="true"/>
    </report>

</configuration>
-->

<net version="0.27" xmlns:xsi="http://www.w3.org/2001/XMLSchema-instance" xsi:noNamespaceSchemaLocation="http://sumo.dlr.de/xsd/net_file.xsd">

    <location netOffset="137.86,171.63" convBoundary="0.00,0.00,2285.86,2319.66" origBoundary="-137.86,-171.63,2148.00,2148.03" projParameter="!"/>

    <edge id=":node_00x00_0" function="internal">
        <lane id=":node_00x00_0_0" index="0" disallow="tram rail_urban rail rail_electric ship" speed="13.89" length="2.16" shape="106.88,139.59 106.32,139.73 105.90,140.02 105.62,140.44 105.48,141.00"/>
    </edge>
    <edge id=":node_00x00_1" function="internal">
        <lane id=":node_00x00_1_0" index="0" disallow="tram rail_urban rail rail_electric ship" speed="13.89" length="6.62" shape="102.20,140.62 102.63,138.91 103.49,137.62 104.77,136.76 106.48,136.31"/>
    </edge>
    <edge id=":node_00x01_0" function="internal">
        <lane id=":node_00x01_0_0" index="0" disallow="tram rail_urban rail rail_electric ship" speed="13.89" length="5.76" shape="95.49,263.58 93.75,263.89 92.48,264.52 91.68,265.48 91.36,266.76"/>
    </edge>
    <edge id=":node_00x01_1" function="internal">
        <lane id=":node_00x01_1_0" index="0" disallow="tram rail_urban rail rail_electric ship" speed="13.89" length="11.31" shape="95.49,263.58 92.32,263.35 90.17,262.14 89.05,259.94 88.95,256.76"/>
    </edge>
    <edge id=":node_00x01_2" function="internal">
        <lane id=":node_00x01_2_0" index="0" disallow="tram rail_urban rail rail_electric ship" speed="13.89" length="5.24" shape="92.23,257.13 92.27,258.61 92.79,259.62 93.79,260.19 95.26,260.29"/>
    </edge>
    <edge id=":node_00x01_3" function="internal">
        <lane id=":node_00x01_3_0" index="0" disallow="tram rail_urban rail rail_electric ship" speed="13.89" length="9.67" shape="92.23,257.13 91.36,266.76"/>
    </edge>
    <edge id=":node_00x01_4" function="internal">
        <lane id=":node_00x01_4_0" index="0" disallow="tram rail_urban rail rail_electric ship" speed="13.89" length="9.84" shape="88.07,266.56 88.95,256.76"/>
    </edge>
    <edge id=":node_00x01_5" function="internal">
        <lane id=":node_00x01_5_0" index="0" disallow="tram rail_urban rail rail_electric ship" speed="13.89" length="10.58" shape="88.07,266.56 88.65,264.00 90.04,262.10 92.24,260.87 95.26,260.29"/>
    </edge>
    <edge id=":node_00x02_0" function="internal">
        <lane id=":node_00x02_0_0" index="0" disallow="tram rail_urban rail rail_electric ship" speed="13.89" length="5.66" shape="88.96,367.82 87.27,368.14 86.03,368.77 85.23,369.71 84.89,370.98"/>
    </edge>
    <edge id=":node_00x02_1" function="internal">
        <lane id=":node_00x02_1_0" index="0" disallow="tram rail_urban rail rail_electric ship" speed="13.89" length="11.07" shape="88.96,367.82 85.87,367.63 83.73,366.47 82.53,364.35 82.27,361.26"/>
    </edge>
    <edge id=":node_00x02_2" function="internal">
        <lane id=":node_00x02_2_0" index="0" disallow="tram rail_urban rail rail_electric ship" speed="13.89" length="5.18" shape="85.57,361.46 85.69,362.91 86.25,363.90 87.25,364.44 88.70,364.53"/>
    </edge>
    <edge id=":node_00x02_3" function="internal">
        <lane id=":node_00x02_3_0" index="0" disallow="tram rail_urban rail rail_electric ship" speed="13.89" length="9.54" shape="85.57,361.46 84.89,370.98"/>
    </edge>
    <edge id=":node_00x02_4" function="internal">
        <lane id=":node_00x02_4_0" index="0" disallow="tram rail_urban rail rail_electric ship" speed="13.89" length="9.46" shape="81.60,370.70 82.27,361.26"/>
    </edge>
    <edge id=":node_00x02_5" function="internal">
        <lane id=":node_00x02_5_0" index="0" disallow="tram rail_urban rail rail_electric ship" speed="13.89" length="10.36" shape="81.60,370.70 82.22,368.20 83.61,366.34 85.77,365.12 88.70,364.53"/>
    </edge>
    <edge id=":node_00x03_0" function="internal">
        <lane id=":node_00x03_0_0" index="0" disallow="tram rail_urban rail rail_electric ship" speed="13.89" length="5.96" shape="81.21,462.94 79.39,463.31 78.03,463.97 77.15,464.92 76.75,466.15"/>
    </edge>
    <edge id=":node_00x03_1" function="internal">
        <lane id=":node_00x03_1_0" index="0" disallow="tram rail_urban rail rail_electric ship" speed="13.89" length="11.38" shape="81.21,462.94 78.00,462.84 75.80,461.71 74.60,459.54 74.41,456.33"/>
    </edge>
    <edge id=":node_00x03_2" function="internal">
        <lane id=":node_00x03_2_0" index="0" disallow="tram rail_urban rail rail_electric ship" speed="13.89" length="5.25" shape="77.70,456.61 77.79,458.09 78.34,459.09 79.36,459.61 80.84,459.66"/>
    </edge>
    <edge id=":node_00x03_3" function="internal">
        <lane id=":node_00x03_3_0" index="0" disallow="tram rail_urban rail rail_electric ship" speed="13.89" length="9.59" shape="77.70,456.61 76.75,466.15"/>
    </edge>
    <edge id=":node_00x03_4" function="internal">
        <lane id=":node_00x03_4_0" index="0" disallow="tram rail_urban rail rail_electric ship" speed="13.89" length="9.46" shape="73.47,465.75 74.41,456.33"/>
    </edge>
    <edge id=":node_00x03_5" function="internal">
        <lane id=":node_00x03_5_0" index="0" disallow="tram rail_urban rail rail_electric ship" speed="13.89" length="10.41" shape="73.47,465.75 74.18,463.37 75.64,461.56 77.86,460.32 80.84,459.66"/>
    </edge>
    <edge id=":node_00x04_0" function="internal">
        <lane id=":node_00x04_0_0" index="0" disallow="tram rail_urban rail rail_electric ship" speed="13.89" length="6.35" shape="69.87,558.91 67.87,559.39 66.40,560.11 65.45,561.08 65.01,562.30"/>
    </edge>
    <edge id=":node_00x04_1" function="internal">
        <lane id=":node_00x04_1_0" index="0" disallow="tram rail_urban rail rail_electric ship" speed="13.89" length="11.86" shape="69.87,558.91 66.48,558.96 64.19,557.86 63.01,555.61 62.94,552.22"/>
    </edge>
    <edge id=":node_00x04_2" function="internal">
        <lane id=":node_00x04_2_0" index="0" disallow="tram rail_urban rail rail_electric ship" speed="13.89" length="5.37" shape="66.22,552.62 66.25,554.16 66.78,555.17 67.82,555.67 69.36,555.65"/>
    </edge>
    <edge id=":node_00x04_3" function="internal">
        <lane id=":node_00x04_3_0" index="0" disallow="tram rail_urban rail rail_electric ship" speed="13.89" length="9.75" shape="66.22,552.62 65.01,562.30"/>
    </edge>
    <edge id=":node_00x04_4" function="internal">
        <lane id=":node_00x04_4_0" index="0" disallow="tram rail_urban rail rail_electric ship" speed="13.89" length="9.73" shape="61.74,561.87 62.94,552.22"/>
    </edge>
    <edge id=":node_00x04_5" function="internal">
        <lane id=":node_00x04_5_0" index="0" disallow="tram rail_urban rail rail_electric ship" speed="13.89" length="10.61" shape="61.74,561.87 62.46,559.56 63.97,557.75 66.27,556.45 69.36,555.65"/>
    </edge>
    <edge id=":node_00x05_0" function="internal">
        <lane id=":node_00x05_0_0" index="0" disallow="tram rail_urban rail rail_electric ship" speed="13.89" length="6.65" shape="56.69,662.80 54.58,663.39 53.02,664.18 52.02,665.18 51.56,666.38"/>
    </edge>
    <edge id=":node_00x05_1" function="internal">
        <lane id=":node_00x05_1_0" index="0" disallow="tram rail_urban rail rail_electric ship" speed="13.89" length="12.19" shape="56.69,662.80 53.18,663.01 50.82,661.98 49.62,659.70 49.58,656.18"/>
    </edge>
    <edge id=":node_00x05_2" function="internal">
        <lane id=":node_00x05_2_0" index="0" disallow="tram rail_urban rail rail_electric ship" speed="13.89" length="5.45" shape="52.85,656.60 52.87,658.18 53.41,659.20 54.46,659.66 56.03,659.57"/>
    </edge>
    <edge id=":node_00x05_3" function="internal">
        <lane id=":node_00x05_3_0" index="0" disallow="tram rail_urban rail rail_electric ship" speed="13.89" length="9.86" shape="52.85,656.60 51.56,666.38"/>
    </edge>
    <edge id=":node_00x05_4" function="internal">
        <lane id=":node_00x05_4_0" index="0" disallow="tram rail_urban rail rail_electric ship" speed="13.89" length="9.84" shape="48.29,665.94 49.58,656.18"/>
    </edge>
    <edge id=":node_00x05_5" function="internal">
        <lane id=":node_00x05_5_0" index="0" disallow="tram rail_urban rail rail_electric ship" speed="13.89" length="10.72" shape="48.29,665.94 49.03,663.69 50.56,661.88 52.90,660.50 56.03,659.57"/>
    </edge>
    <edge id=":node_00x06_0" function="internal">
        <lane id=":node_00x06_0_0" index="0" disallow="tram rail_urban rail rail_electric ship" speed="13.89" length="6.37" shape="42.95,762.86 40.94,763.35 39.47,764.10 38.54,765.09 38.15,766.33"/>
    </edge>
    <edge id=":node_00x06_1" function="internal">
        <lane id=":node_00x06_1_0" index="0" disallow="tram rail_urban rail rail_electric ship" speed="13.89" length="11.98" shape="42.95,762.86 39.51,762.93 37.21,761.82 36.05,759.55 36.03,756.12"/>
    </edge>
    <edge id=":node_00x06_2" function="internal">
        <lane id=":node_00x06_2_0" index="0" disallow="tram rail_urban rail rail_electric ship" speed="13.89" length="5.40" shape="39.30,756.56 39.31,758.11 39.83,759.13 40.87,759.63 42.42,759.60"/>
    </edge>
    <edge id=":node_00x06_3" function="internal">
        <lane id=":node_00x06_3_0" index="0" disallow="tram rail_urban rail rail_electric ship" speed="13.89" length="9.83" shape="39.30,756.56 38.15,766.33"/>
    </edge>
    <edge id=":node_00x06_4" function="internal">
        <lane id=":node_00x06_4_0" index="0" disallow="tram rail_urban rail rail_electric ship" speed="13.89" length="9.98" shape="34.86,766.03 36.03,756.12"/>
    </edge>
    <edge id=":node_00x06_5" function="internal">
        <lane id=":node_00x06_5_0" index="0" disallow="tram rail_urban rail rail_electric ship" speed="13.89" length="10.75" shape="34.86,766.03 35.52,763.65 36.99,761.78 39.29,760.43 42.42,759.60"/>
    </edge>
    <edge id=":node_00x07_0" function="internal">
        <lane id=":node_00x07_0_0" index="0" disallow="tram rail_urban rail rail_electric ship" speed="13.89" length="6.11" shape="33.19,867.59 31.30,868.04 29.91,868.75 29.02,869.72 28.64,870.96"/>
    </edge>
    <edge id=":node_00x07_1" function="internal">
        <lane id=":node_00x07_1_0" index="0" disallow="tram rail_urban rail rail_electric ship" speed="13.89" length="11.60" shape="33.19,867.59 29.89,867.60 27.64,866.51 26.42,864.32 26.25,861.02"/>
    </edge>
    <edge id=":node_00x07_2" function="internal">
        <lane id=":node_00x07_2_0" index="0" disallow="tram rail_urban rail rail_electric ship" speed="13.89" length="5.31" shape="29.54,861.32 29.62,862.83 30.17,863.83 31.20,864.33 32.71,864.33"/>
    </edge>
    <edge id=":node_00x07_3" function="internal">
        <lane id=":node_00x07_3_0" index="0" disallow="tram rail_urban rail rail_electric ship" speed="13.89" length="9.68" shape="29.54,861.32 28.64,870.96"/>
    </edge>
    <edge id=":node_00x07_4" function="internal">
        <lane id=":node_00x07_4_0" index="0" disallow="tram rail_urban rail rail_electric ship" speed="13.89" length="9.65" shape="25.35,870.64 26.25,861.02"/>
    </edge>
    <edge id=":node_00x07_5" function="internal">
        <lane id=":node_00x07_5_0" index="0" disallow="tram rail_urban rail rail_electric ship" speed="13.89" length="10.53" shape="25.35,870.64 26.01,868.25 27.45,866.40 29.69,865.10 32.71,864.33"/>
    </edge>
    <edge id=":node_00x08_0" function="internal">
        <lane id=":node_00x08_0_0" index="0" disallow="tram rail_urban rail rail_electric ship" speed="13.89" length="6.19" shape="23.61,966.31 21.69,966.78 20.29,967.51 19.40,968.50 19.02,969.74"/>
    </edge>
    <edge id=":node_00x08_1" function="internal">
        <lane id=":node_00x08_1_0" index="0" disallow="tram rail_urban rail rail_electric ship" speed="13.89" length="11.72" shape="23.61,966.31 20.27,966.36 17.99,965.28 16.78,963.07 16.63,959.73"/>
    </edge>
    <edge id=":node_00x08_2" function="internal">
        <lane id=":node_00x08_2_0" index="0" disallow="tram rail_urban rail rail_electric ship" speed="13.89" length="5.34" shape="19.92,960.05 19.98,961.57 20.54,962.58 21.57,963.07 23.09,963.05"/>
    </edge>
    <edge id=":node_00x08_3" function="internal">
        <lane id=":node_00x08_3_0" index="0" disallow="tram rail_urban rail rail_electric ship" speed="13.89" length="9.73" shape="19.92,960.05 19.02,969.74"/>
    </edge>
    <edge id=":node_00x08_4" function="internal">
        <lane id=":node_00x08_4_0" index="0" disallow="tram rail_urban rail rail_electric ship" speed="13.89" length="9.78" shape="15.74,969.47 16.63,959.73"/>
    </edge>
    <edge id=":node_00x08_5" function="internal">
        <lane id=":node_00x08_5_0" index="0" disallow="tram rail_urban rail rail_electric ship" speed="13.89" length="10.61" shape="15.74,969.47 16.36,967.07 17.80,965.20 20.04,963.86 23.09,963.05"/>
    </edge>
    <edge id=":node_00x09_0" function="internal">
        <lane id=":node_00x09_0_0" index="0" disallow="tram rail_urban rail rail_electric ship" speed="13.89" length="5.76" shape="15.17,1062.79 13.43,1063.13 12.16,1063.78 11.37,1064.75 11.05,1066.03"/>
    </edge>
    <edge id=":node_00x09_1" function="internal">
        <lane id=":node_00x09_1_0" index="0" disallow="tram rail_urban rail rail_electric ship" speed="13.89" length="11.26" shape="15.17,1062.79 12.00,1062.63 9.83,1061.47 8.65,1059.31 8.46,1056.15"/>
    </edge>
    <edge id=":node_00x09_2" function="internal">
        <lane id=":node_00x09_2_0" index="0" disallow="tram rail_urban rail rail_electric ship" speed="13.89" length="5.23" shape="11.75,1056.42 11.84,1057.89 12.38,1058.89 13.39,1059.43 14.86,1059.50"/>
    </edge>
    <edge id=":node_00x09_3" function="internal">
        <lane id=":node_00x09_3_0" index="0" disallow="tram rail_urban rail rail_electric ship" speed="13.89" length="9.63" shape="11.75,1056.42 11.05,1066.03"/>
    </edge>
    <edge id=":node_00x09_4" function="internal">
        <lane id=":node_00x09_4_0" index="0" disallow="tram rail_urban rail rail_electric ship" speed="13.89" length="9.71" shape="7.75,1065.83 8.46,1056.15"/>
    </edge>
    <edge id=":node_00x09_5" function="internal">
        <lane id=":node_00x09_5_0" index="0" disallow="tram rail_urban rail rail_electric ship" speed="13.89" length="10.51" shape="7.75,1065.83 8.32,1063.30 9.70,1061.40 11.88,1060.14 14.86,1059.50"/>
    </edge>
    <edge id=":node_00x10_0" function="internal">
        <lane id=":node_00x10_0_0" index="0" disallow="tram rail_urban rail rail_electric ship" speed="13.89" length="5.62" shape="8.94,1165.14 7.28,1165.47 6.07,1166.13 5.33,1167.10 5.05,1168.40"/>
    </edge>
    <edge id=":node_00x10_1" function="internal">
        <lane id=":node_00x10_1_0" index="0" disallow="tram rail_urban rail rail_electric ship" speed="13.89" length="11.11" shape="8.94,1165.14 5.84,1164.98 3.68,1163.83 2.47,1161.71 2.21,1158.61"/>
    </edge>
    <edge id=":node_00x10_2" function="internal">
        <lane id=":node_00x10_2_0" index="0" disallow="tram rail_urban rail rail_electric ship" speed="13.89" length="5.19" shape="5.51,1158.80 5.63,1160.25 6.19,1161.24 7.20,1161.78 8.65,1161.86"/>
    </edge>
    <edge id=":node_00x10_3" function="internal">
        <lane id=":node_00x10_3_0" index="0" disallow="tram rail_urban rail rail_electric ship" speed="13.89" length="9.60" shape="5.51,1158.80 5.05,1168.40"/>
    </edge>
    <edge id=":node_00x10_4" function="internal">
        <lane id=":node_00x10_4_0" index="0" disallow="tram rail_urban rail rail_electric ship" speed="13.89" length="9.69" shape="1.75,1168.29 2.21,1158.61"/>
    </edge>
    <edge id=":node_00x10_5" function="internal">
        <lane id=":node_00x10_5_0" index="0" disallow="tram rail_urban rail rail_electric ship" speed="13.89" length="10.48" shape="1.75,1168.29 2.25,1165.70 3.57,1163.76 5.71,1162.48 8.65,1161.86"/>
    </edge>
    <edge id=":node_00x11_0" function="internal">
        <lane id=":node_00x11_0_0" index="0" disallow="tram rail_urban rail rail_electric ship" speed="13.89" length="9.75" shape="-1.60,1273.74 -1.48,1263.99"/>
    </edge>
    <edge id=":node_00x11_1" function="internal">
        <lane id=":node_00x11_1_0" index="0" disallow="tram rail_urban rail rail_electric ship" speed="13.89" length="10.48" shape="-1.60,1273.74 -1.21,1271.04 0.01,1269.04 2.08,1267.74 4.98,1267.15"/>
    </edge>
    <edge id=":node_00x11_2" function="internal">
        <lane id=":node_00x11_2_0" index="0" disallow="tram rail_urban rail rail_electric ship" speed="13.89" length="5.39" shape="5.22,1270.44 3.67,1270.74 2.57,1271.38 1.91,1272.37 1.70,1273.70"/>
    </edge>
    <edge id=":node_00x11_3" function="internal">
        <lane id=":node_00x11_3_0" index="0" disallow="tram rail_urban rail rail_electric ship" speed="13.89" length="10.88" shape="5.22,1270.44 2.20,1270.22 0.08,1269.08 -1.15,1267.00 -1.48,1263.99"/>
    </edge>
    <edge id=":node_00x11_4" function="internal">
        <lane id=":node_00x11_4_0" index="0" disallow="tram rail_urban rail rail_electric ship" speed="13.89" length="5.13" shape="1.82,1264.11 1.98,1265.52 2.56,1266.50 3.56,1267.04 4.98,1267.15"/>
    </edge>
    <edge id=":node_00x11_5" function="internal">
        <lane id=":node_00x11_5_0" index="0" disallow="tram rail_urban rail rail_electric ship" speed="13.89" length="9.60" shape="1.82,1264.11 1.70,1273.70"/>
    </edge>
    <edge id=":node_00x12_0" function="internal">
        <lane id=":node_00x12_0_0" index="0" disallow="tram rail_urban rail rail_electric ship" speed="13.89" length="10.03" shape="0.20,1381.66 -0.43,1371.64"/>
    </edge>
    <edge id=":node_00x12_1" function="internal">
        <lane id=":node_00x12_1_0" index="0" disallow="tram rail_urban rail rail_electric ship" speed="13.89" length="11.39" shape="0.20,1381.66 0.33,1378.44 1.48,1376.25 3.67,1375.07 6.88,1374.92"/>
    </edge>
    <edge id=":node_00x12_2" function="internal">
        <lane id=":node_00x12_2_0" index="0" disallow="tram rail_urban rail rail_electric ship" speed="13.89" length="5.26" shape="6.57,1378.21 5.08,1378.28 4.07,1378.82 3.54,1379.83 3.48,1381.31"/>
    </edge>
    <edge id=":node_00x12_3" function="internal">
        <lane id=":node_00x12_3_0" index="0" disallow="tram rail_urban rail rail_electric ship" speed="13.89" length="10.68" shape="6.57,1378.21 3.53,1377.55 1.35,1376.23 0.03,1374.27 -0.43,1371.64"/>
    </edge>
    <edge id=":node_00x12_4" function="internal">
        <lane id=":node_00x12_4_0" index="0" disallow="tram rail_urban rail rail_electric ship" speed="13.89" length="5.77" shape="2.87,1371.60 3.13,1372.91 3.89,1373.90 5.14,1374.57 6.88,1374.92"/>
    </edge>
    <edge id=":node_00x12_5" function="internal">
        <lane id=":node_00x12_5_0" index="0" disallow="tram rail_urban rail rail_electric ship" speed="13.89" length="9.73" shape="2.87,1371.60 3.48,1381.31"/>
    </edge>
    <edge id=":node_00x13_0" function="internal">
        <lane id=":node_00x13_0_0" index="0" disallow="tram rail_urban rail rail_electric ship" speed="13.89" length="9.98" shape="10.99,1484.46 9.92,1474.54"/>
    </edge>
    <edge id=":node_00x13_1" function="internal">
        <lane id=":node_00x13_1_0" index="0" disallow="tram rail_urban rail rail_electric ship" speed="13.89" length="12.45" shape="10.99,1484.46 11.10,1480.84 12.38,1478.57 14.81,1477.66 18.41,1478.09"/>
    </edge>
    <edge id=":node_00x13_2" function="internal">
        <lane id=":node_00x13_2_0" index="0" disallow="tram rail_urban rail rail_electric ship" speed="13.89" length="5.52" shape="17.56,1481.28 15.96,1481.09 14.88,1481.49 14.32,1482.50 14.27,1484.11"/>
    </edge>
    <edge id=":node_00x13_3" function="internal">
        <lane id=":node_00x13_3_0" index="0" disallow="tram rail_urban rail rail_electric ship" speed="13.89" length="10.84" shape="17.56,1481.28 14.41,1480.15 12.09,1478.65 10.59,1476.78 9.92,1474.54"/>
    </edge>
    <edge id=":node_00x13_4" function="internal">
        <lane id=":node_00x13_4_0" index="0" disallow="tram rail_urban rail rail_electric ship" speed="13.89" length="6.87" shape="13.21,1474.19 13.63,1475.41 14.64,1476.46 16.23,1477.36 18.41,1478.09"/>
    </edge>
    <edge id=":node_00x13_5" function="internal">
        <lane id=":node_00x13_5_0" index="0" disallow="tram rail_urban rail rail_electric ship" speed="13.89" length="9.97" shape="13.21,1474.19 14.27,1484.11"/>
    </edge>
    <edge id=":node_00x14_0" function="internal">
        <lane id=":node_00x14_0_0" index="0" disallow="tram rail_urban rail rail_electric ship" speed="13.89" length="10.09" shape="22.24,1586.57 21.01,1576.55"/>
    </edge>
    <edge id=":node_00x14_1" function="internal">
        <lane id=":node_00x14_1_0" index="0" disallow="tram rail_urban rail rail_electric ship" speed="13.89" length="12.54" shape="22.24,1586.57 22.28,1582.91 23.51,1580.61 25.94,1579.66 29.58,1580.07"/>
    </edge>
    <edge id=":node_00x14_2" function="internal">
        <lane id=":node_00x14_2_0" index="0" disallow="tram rail_urban rail rail_electric ship" speed="13.89" length="5.54" shape="28.76,1583.27 27.15,1583.09 26.07,1583.51 25.53,1584.52 25.52,1586.14"/>
    </edge>
    <edge id=":node_00x14_3" function="internal">
        <lane id=":node_00x14_3_0" index="0" disallow="tram rail_urban rail rail_electric ship" speed="13.89" length="10.92" shape="28.76,1583.27 25.57,1582.15 23.21,1580.66 21.70,1578.80 21.01,1576.55"/>
    </edge>
    <edge id=":node_00x14_4" function="internal">
        <lane id=":node_00x14_4_0" index="0" disallow="tram rail_urban rail rail_electric ship" speed="13.89" length="6.92" shape="24.29,1576.20 24.73,1577.41 25.76,1578.46 27.37,1579.35 29.58,1580.07"/>
    </edge>
    <edge id=":node_00x14_5" function="internal">
        <lane id=":node_00x14_5_0" index="0" disallow="tram rail_urban rail rail_electric ship" speed="13.89" length="10.02" shape="24.29,1576.20 25.52,1586.14"/>
    </edge>
    <edge id=":node_00x15_0" function="internal">
        <lane id=":node_00x15_0_0" index="0" disallow="tram rail_urban rail rail_electric ship" speed="13.89" length="9.94" shape="36.13,1691.95 34.77,1682.11"/>
    </edge>
    <edge id=":node_00x15_1" function="internal">
        <lane id=":node_00x15_1_0" index="0" disallow="tram rail_urban rail rail_electric ship" speed="13.89" length="12.25" shape="36.13,1691.95 36.13,1688.41 37.31,1686.11 39.67,1685.06 43.21,1685.26"/>
    </edge>
    <edge id=":node_00x15_2" function="internal">
        <lane id=":node_00x15_2_0" index="0" disallow="tram rail_urban rail rail_electric ship" speed="13.89" length="5.47" shape="42.56,1688.50 40.98,1688.41 39.92,1688.88 39.40,1689.90 39.40,1691.49"/>
    </edge>
    <edge id=":node_00x15_3" function="internal">
        <lane id=":node_00x15_3_0" index="0" disallow="tram rail_urban rail rail_electric ship" speed="13.89" length="10.78" shape="42.56,1688.50 39.40,1687.57 37.05,1686.19 35.50,1684.37 34.77,1682.11"/>
    </edge>
    <edge id=":node_00x15_4" function="internal">
        <lane id=":node_00x15_4_0" index="0" disallow="tram rail_urban rail rail_electric ship" speed="13.89" length="6.68" shape="38.05,1681.68 38.50,1682.89 39.51,1683.89 41.08,1684.68 43.21,1685.26"/>
    </edge>
    <edge id=":node_00x15_5" function="internal">
        <lane id=":node_00x15_5_0" index="0" disallow="tram rail_urban rail rail_electric ship" speed="13.89" length="9.90" shape="38.05,1681.68 39.40,1691.49"/>
    </edge>
    <edge id=":node_00x16_0" function="internal">
        <lane id=":node_00x16_0_0" index="0" disallow="tram rail_urban rail rail_electric ship" speed="13.89" length="9.87" shape="50.57,1792.74 49.13,1782.98"/>
    </edge>
    <edge id=":node_00x16_1" function="internal">
        <lane id=":node_00x16_1_0" index="0" disallow="tram rail_urban rail rail_electric ship" speed="13.89" length="12.10" shape="50.57,1792.74 50.54,1789.25 51.68,1786.96 53.99,1785.85 57.48,1785.94"/>
    </edge>
    <edge id=":node_00x16_2" function="internal">
        <lane id=":node_00x16_2_0" index="0" disallow="tram rail_urban rail rail_electric ship" speed="13.89" length="5.43" shape="56.93,1789.19 55.37,1789.16 54.33,1789.65 53.82,1790.68 53.83,1792.25"/>
    </edge>
    <edge id=":node_00x16_3" function="internal">
        <lane id=":node_00x16_3_0" index="0" disallow="tram rail_urban rail rail_electric ship" speed="13.89" length="10.72" shape="56.93,1789.19 53.79,1788.36 51.44,1787.05 49.88,1785.25 49.13,1782.98"/>
    </edge>
    <edge id=":node_00x16_4" function="internal">
        <lane id=":node_00x16_4_0" index="0" disallow="tram rail_urban rail rail_electric ship" speed="13.89" length="6.54" shape="52.39,1782.51 52.85,1783.71 53.85,1784.69 55.39,1785.43 57.48,1785.94"/>
    </edge>
    <edge id=":node_00x16_5" function="internal">
        <lane id=":node_00x16_5_0" index="0" disallow="tram rail_urban rail rail_electric ship" speed="13.89" length="9.84" shape="52.39,1782.51 53.83,1792.25"/>
    </edge>
    <edge id=":node_00x17_0" function="internal">
        <lane id=":node_00x17_0_0" index="0" disallow="tram rail_urban rail rail_electric ship" speed="13.89" length="9.40" shape="64.86,1889.69 63.78,1880.35"/>
    </edge>
    <edge id=":node_00x17_1" function="internal">
        <lane id=":node_00x17_1_0" index="0" disallow="tram rail_urban rail rail_electric ship" speed="13.89" length="11.47" shape="64.86,1889.69 65.03,1886.44 66.23,1884.26 68.45,1883.13 71.70,1883.07"/>
    </edge>
    <edge id=":node_00x17_2" function="internal">
        <lane id=":node_00x17_2_0" index="0" disallow="tram rail_urban rail rail_electric ship" speed="13.89" length="5.28" shape="71.29,1886.34 69.80,1886.37 68.78,1886.89 68.23,1887.90 68.15,1889.39"/>
    </edge>
    <edge id=":node_00x17_3" function="internal">
        <lane id=":node_00x17_3_0" index="0" disallow="tram rail_urban rail rail_electric ship" speed="13.89" length="10.39" shape="71.29,1886.34 68.30,1885.66 66.05,1884.43 64.54,1882.66 63.78,1880.35"/>
    </edge>
    <edge id=":node_00x17_4" function="internal">
        <lane id=":node_00x17_4_0" index="0" disallow="tram rail_urban rail rail_electric ship" speed="13.89" length="6.08" shape="67.04,1879.86 67.49,1881.07 68.41,1882.00 69.81,1882.67 71.70,1883.07"/>
    </edge>
    <edge id=":node_00x17_5" function="internal">
        <lane id=":node_00x17_5_0" index="0" disallow="tram rail_urban rail rail_electric ship" speed="13.89" length="9.59" shape="67.04,1879.86 68.15,1889.39"/>
    </edge>
    <edge id=":node_00x18_0" function="internal">
        <lane id=":node_00x18_0_0" index="0" disallow="tram rail_urban rail rail_electric ship" speed="13.89" length="9.59" shape="73.50,1984.68 72.65,1975.13"/>
    </edge>
    <edge id=":node_00x18_1" function="internal">
        <lane id=":node_00x18_1_0" index="0" disallow="tram rail_urban rail rail_electric ship" speed="13.89" length="11.30" shape="73.50,1984.68 73.68,1981.51 74.85,1979.34 77.03,1978.18 80.21,1978.03"/>
    </edge>
    <edge id=":node_00x18_2" function="internal">
        <lane id=":node_00x18_2_0" index="0" disallow="tram rail_urban rail rail_electric ship" speed="13.89" length="5.23" shape="79.89,1981.31 78.42,1981.38 77.41,1981.92 76.87,1982.92 76.78,1984.39"/>
    </edge>
    <edge id=":node_00x18_3" function="internal">
        <lane id=":node_00x18_3_0" index="0" disallow="tram rail_urban rail rail_electric ship" speed="13.89" length="10.45" shape="79.89,1981.31 76.91,1980.68 74.71,1979.44 73.29,1977.59 72.65,1975.13"/>
    </edge>
    <edge id=":node_00x18_4" function="internal">
        <lane id=":node_00x18_4_0" index="0" disallow="tram rail_urban rail rail_electric ship" speed="13.89" length="5.84" shape="75.93,1974.83 76.30,1976.08 77.13,1977.03 78.43,1977.68 80.21,1978.03"/>
    </edge>
    <edge id=":node_00x18_5" function="internal">
        <lane id=":node_00x18_5_0" index="0" disallow="tram rail_urban rail rail_electric ship" speed="13.89" length="9.61" shape="75.93,1974.83 76.78,1984.39"/>
    </edge>
    <edge id=":node_00x19_0" function="internal">
        <lane id=":node_00x19_0_0" index="0" disallow="tram rail_urban rail rail_electric ship" speed="13.89" length="9.85" shape="82.87,2089.38 81.78,2079.59"/>
    </edge>
    <edge id=":node_00x19_1" function="internal">
        <lane id=":node_00x19_1_0" index="0" disallow="tram rail_urban rail rail_electric ship" speed="13.89" length="11.53" shape="82.87,2089.38 82.91,2086.12 84.03,2083.88 86.22,2082.68 89.48,2082.52"/>
    </edge>
    <edge id=":node_00x19_2" function="internal">