<?xml version='1.0' encoding='UTF-8'?>
<nodes xmlns:xsi="http://www.w3.org/2001/XMLSchema-instance" version="0.27" xsi:noNamespaceSchemaLocation="http://sumo.dlr.de/xsd/nodes_file.xsd">
    <location convBoundary="0.00,0.00,2000.00,2000.00" netOffset="-224973.31,-2700122.99" origBoundary="54.286966,24.391306,54.609531,24.591038" projParameter="+proj=utm +zone=40 +ellps=WGS84 +datum=WGS84 +units=m +no_defs" />

    <node avg_slowdown_ratio="0.228941684665" id="node_00x00" type="right_before_left" weight_num="1.0" weight_sum="0.228941684665" x="0.00" y="0.00" />
    <node avg_slowdown_ratio="0.262059035277" id="node_00x01" type="right_before_left" weight_num="2.0" weight_sum="0.524118070554" x="0.00" y="100.00" />
    <node avg_slowdown_ratio="0.262299016079" id="node_00x02" type="right_before_left" weight_num="3.0" weight_sum="0.786897048236" x="0.00" y="200.00" />
    <node avg_slowdown_ratio="0.244060475162" id="node_00x03" type="right_before_left" weight_num="3.0" weight_sum="0.732181425486" x="0.00" y="300.00" />
    <node avg_slowdown_ratio="0.262299016079" id="node_00x04" type="right_before_left" weight_num="3.0" weight_sum="0.786897048236" x="0.00" y="400.00" />
    <node avg_slowdown_ratio="0.266738660907" id="node_00x05" type="right_before_left" weight_num="2.0" weight_sum="0.533477321815" x="0.00" y="500.00" />
    <node avg_slowdown_ratio="0.272858171346" id="node_00x06" type="right_before_left" weight_num="3.0" weight_sum="0.818574514039" x="0.00" y="600.00" />
    <node avg_slowdown_ratio="0.232901367891" id="node_00x07" type="right_before_left" weight_num="2.0" weight_sum="0.465802735782" x="0.00" y="700.00" />
    <node avg_slowdown_ratio="0.0827933765299" id="node_00x08" type="right_before_left" weight_num="1.0" weight_sum="0.0827933765299" x="0.00" y="800.00" />
    <node avg_slowdown_ratio="0.0863930885529" id="node_00x09" type="right_before_left" weight_num="1.0" weight_sum="0.0863930885529" x="0.00" y="900.00" />
    <node avg_slowdown_ratio="0.200863930886" id="node_00x10" type="right_before_left" weight_num="2.0" weight_sum="0.401727861771" x="0.00" y="1000.00" />
    <node avg_slowdown_ratio="0.250899928005" id="node_00x11" type="right_before_left" weight_num="2.0" weight_sum="0.501799856011" x="0.00" y="1100.00" />
    <node avg_slowdown_ratio="0.0835133189345" id="node_00x12" type="right_before_left" weight_num="1.0" weight_sum="0.0835133189345" x="0.00" y="1200.00" />
    <node avg_slowdown_ratio="0.277177825774" id="node_00x13" type="right_before_left" weight_num="3.0" weight_sum="0.831533477321" x="0.00" y="1300.00" />
    <node avg_slowdown_ratio="0.289896808255" id="node_00x14" type="right_before_left" weight_num="3.0" weight_sum="0.869690424766" x="0.00" y="1400.00" />
    <node avg_slowdown_ratio="0.0892728581713" id="node_00x15" type="right_before_left" weight_num="1.0" weight_sum="0.0892728581713" x="0.00" y="1500.00" />
    <node avg_slowdown_ratio="0.089992800576" id="node_00x16" type="right_before_left" weight_num="1.0" weight_sum="0.089992800576" x="0.00" y="1600.00" />
    <node avg_slowdown_ratio="0.282457403408" id="node_00x17" type="right_before_left" weight_num="3.0" weight_sum="0.847372210223" x="0.00" y="1700.00" />
    <node avg_slowdown_ratio="0.251979841612" id="node_00x18" type="right_before_left" weight_num="2.0" weight_sum="0.503959683225" x="0.00" y="1800.00" />
    <node avg_slowdown_ratio="0.0849532037437" id="node_00x19" type="right_before_left" weight_num="1.0" weight_sum="0.0849532037437" x="0.00" y="1900.00" />
    <node avg_slowdown_ratio="0.211663066955" id="node_01x02" type="right_before_left" weight_num="2.0" weight_sum="0.42332613391" x="100.00" y="200.00" />
    <node avg_slowdown_ratio="0.270698344132" id="node_01x03" type="right_before_left" weight_num="2.0" weight_sum="0.541396688265" x="100.00" y="300.00" />
    <node avg_slowdown_ratio="0.260259179265" id="node_01x04" type="right_before_left" weight_num="4.0" weight_sum="1.04103671706" x="100.00" y="400.00" />
    <node avg_slowdown_ratio="0.257499400048" id="node_01x05" type="right_before_left" weight_num="3.0" weight_sum="0.772498200144" x="100.00" y="500.00" />
    <node avg_slowdown_ratio="0.252519798415" id="node_01x06" type="right_before_left" weight_num="4.0" weight_sum="1.01007919366" x="100.00" y="600.00" />
    <node avg_slowdown_ratio="0.275737940965" id="node_01x07" type="right_before_left" weight_num="3.0" weight_sum="0.827213822895" x="100.00" y="700.00" />
    <node avg_slowdown_ratio="0.305735541157" id="node_01x08" type="right_before_left" weight_num="3.0" weight_sum="0.917206623471" x="100.00" y="800.00" />
    <node avg_slowdown_ratio="0.320734341252" id="node_01x09" type="right_before_left" weight_num="4.0" weight_sum="1.28293736501" x="100.00" y="900.00" />
    <node avg_slowdown_ratio="0.249100071994" id="node_01x10" type="right_before_left" weight_num="4.0" weight_sum="0.996400287977" x="100.00" y="1000.00" />
    <node avg_slowdown_ratio="0.250899928005" id="node_01x11" type="right_before_left" weight_num="4.0" weight_sum="1.00359971202" x="100.00" y="1100.00" />
    <node avg_slowdown_ratio="0.231101511879" id="node_01x12" type="right_before_left" weight_num="2.0" weight_sum="0.462203023758" x="100.00" y="1200.00" />
    <node avg_slowdown_ratio="0.243100551956" id="node_01x13" type="right_before_left" weight_num="3.0" weight_sum="0.729301655868" x="100.00" y="1300.00" />
    <node avg_slowdown_ratio="0.240220782338" id="node_01x14" type="right_before_left" weight_num="3.0" weight_sum="0.720662347013" x="100.00" y="1400.00" />
    <node avg_slowdown_ratio="0.25461963043" id="node_01x15" type="right_before_left" weight_num="3.0" weight_sum="0.763858891289" x="100.00" y="1500.00" />
    <node avg_slowdown_ratio="0.213462922966" id="node_01x16" type="right_before_left" weight_num="2.0" weight_sum="0.426925845932" x="100.00" y="1600.00" />
    <node avg_slowdown_ratio="0.239500839933" id="node_01x17" type="right_before_left" weight_num="3.0" weight_sum="0.718502519798" x="100.00" y="1700.00" />
    <node avg_slowdown_ratio="0.252699784017" id="node_01x18" type="right_before_left" weight_num="3.0" weight_sum="0.758099352051" x="100.00" y="1800.00" />
    <node avg_slowdown_ratio="0.269798416127" id="node_01x19" type="right_before_left" weight_num="4.0" weight_sum="1.07919366451" x="100.00" y="1900.00" />
    <node avg_slowdown_ratio="0.242260619151" id="node_01x20" type="right_before_left" weight_num="2.0" weight_sum="0.484521238301" x="100.00" y="2000.00" />
    <node avg_slowdown_ratio="0.246940244781" id="node_02x00" type="right_before_left" weight_num="2.0" weight_sum="0.493880489561" x="200.00" y="0.00" />
    <node avg_slowdown_ratio="0.258219342453" id="node_02x01" type="right_before_left" weight_num="3.0" weight_sum="0.774658027358" x="200.00" y="100.00" />
    <node avg_slowdown_ratio="0.256839452842" id="node_02x02" type="right_before_left" weight_num="4.0" weight_sum="1.02735781137" x="200.00" y="200.00" />
    <node avg_slowdown_ratio="0.236141108712" id="node_02x03" type="right_before_left" weight_num="3.0" weight_sum="0.708423326135" x="200.00" y="300.00" />
    <node avg_slowdown_ratio="0.259899208062" id="node_02x04" type="right_before_left" weight_num="4.0" weight_sum="1.03959683225" x="200.00" y="400.00" />
    <node avg_slowdown_ratio="0.250779937605" id="node_02x05" type="right_before_left" weight_num="3.0" weight_sum="0.752339812815" x="200.00" y="500.00" />
    <node avg_slowdown_ratio="0.238120950324" id="node_02x06" type="right_before_left" weight_num="4.0" weight_sum="0.952483801297" x="200.00" y="600.00" />
    <node avg_slowdown_ratio="0.238480921526" id="node_02x07" type="right_before_left" weight_num="4.0" weight_sum="0.953923686105" x="200.00" y="700.00" />
    <node avg_slowdown_ratio="0.263498920087" id="node_02x08" type="right_before_left" weight_num="4.0" weight_sum="1.05399568035" x="200.00" y="800.00" />
    <node avg_slowdown_ratio="0.243580513559" id="node_02x09" type="right_before_left" weight_num="3.0" weight_sum="0.730741540677" x="200.00" y="900.00" />
    <node avg_slowdown_ratio="0.255039596832" id="node_02x10" type="right_before_left" weight_num="4.0" weight_sum="1.02015838733" x="200.00" y="1000.00" />
    <node avg_slowdown_ratio="0.264578833693" id="node_02x11" type="right_before_left" weight_num="4.0" weight_sum="1.05831533477" x="200.00" y="1100.00" />
    <node avg_slowdown_ratio="0.27033837293" id="node_02x12" type="right_before_left" weight_num="2.0" weight_sum="0.54067674586" x="200.00" y="1200.00" />
    <node avg_slowdown_ratio="0.244540436765" id="node_02x13" type="right_before_left" weight_num="3.0" weight_sum="0.733621310294" x="200.00" y="1300.00" />
    <node avg_slowdown_ratio="0.235601151908" id="node_02x14" type="right_before_left" weight_num="4.0" weight_sum="0.942404607632" x="200.00" y="1400.00" />
    <node avg_slowdown_ratio="0.249640028798" id="node_02x15" type="right_before_left" weight_num="4.0" weight_sum="0.998560115191" x="200.00" y="1500.00" />
    <node avg_slowdown_ratio="0.267818574515" id="node_02x16" type="right_before_left" weight_num="4.0" weight_sum="1.07127429806" x="200.00" y="1600.00" />
    <node avg_slowdown_ratio="0.233981281497" id="node_02x17" type="right_before_left" weight_num="2.0" weight_sum="0.467962562995" x="200.00" y="1700.00" />
    <node avg_slowdown_ratio="0.253779697624" id="node_02x18" type="right_before_left" weight_num="2.0" weight_sum="0.507559395248" x="200.00" y="1800.00" />
    <node avg_slowdown_ratio="0.254319654427" id="node_02x19" type="right_before_left" weight_num="4.0" weight_sum="1.01727861771" x="200.00" y="1900.00" />
    <node avg_slowdown_ratio="0.271058315335" id="node_02x20" type="right_before_left" weight_num="2.0" weight_sum="0.54211663067" x="200.00" y="2000.00" />
    <node avg_slowdown_ratio="0.26253899688" id="node_03x00" type="right_before_left" weight_num="3.0" weight_sum="0.787616990641" x="300.00" y="0.00" />
    <node avg_slowdown_ratio="0.25467962563" id="node_03x01" type="right_before_left" weight_num="4.0" weight_sum="1.01871850252" x="300.00" y="100.00" />
    <node avg_slowdown_ratio="0.245680345572" id="node_03x02" type="right_before_left" weight_num="4.0" weight_sum="0.982721382289" x="300.00" y="200.00" />
    <node avg_slowdown_ratio="0.254379649628" id="node_03x03" type="right_before_left" weight_num="3.0" weight_sum="0.763138948884" x="300.00" y="300.00" />
    <node avg_slowdown_ratio="0.246220302376" id="node_03x04" type="right_before_left" weight_num="4.0" weight_sum="0.984881209504" x="300.00" y="400.00" />
    <node avg_slowdown_ratio="0.252939764819" id="node_03x05" type="right_before_left" weight_num="3.0" weight_sum="0.758819294457" x="300.00" y="500.00" />
    <node avg_slowdown_ratio="0.250359971202" id="node_03x06" type="right_before_left" weight_num="4.0" weight_sum="1.00143988481" x="300.00" y="600.00" />
    <node avg_slowdown_ratio="0.244600431966" id="node_03x07" type="right_before_left" weight_num="4.0" weight_sum="0.978401727863" x="300.00" y="700.00" />
    <node avg_slowdown_ratio="0.252219822414" id="node_03x08" type="right_before_left" weight_num="3.0" weight_sum="0.756659467243" x="300.00" y="800.00" />
    <node avg_slowdown_ratio="0.239380849532" id="node_03x09" type="right_before_left" weight_num="2.0" weight_sum="0.478761699064" x="300.00" y="900.00" />
    <node avg_slowdown_ratio="0.253959683225" id="node_03x10" type="right_before_left" weight_num="4.0" weight_sum="1.0158387329" x="300.00" y="1000.00" />
    <node avg_slowdown_ratio="0.25953923686" id="node_03x11" type="right_before_left" weight_num="4.0" weight_sum="1.03815694744" x="300.00" y="1100.00" />
    <node avg_slowdown_ratio="0.29391648668" id="node_03x12" type="right_before_left" weight_num="4.0" weight_sum="1.17566594672" x="300.00" y="1200.00" />
    <node avg_slowdown_ratio="0.272138228942" id="node_03x13" type="right_before_left" weight_num="3.0" weight_sum="0.816414686825" x="300.00" y="1300.00" />
    <node avg_slowdown_ratio="0.25935925126" id="node_03x14" type="right_before_left" weight_num="4.0" weight_sum="1.03743700504" x="300.00" y="1400.00" />
    <node avg_slowdown_ratio="0.246940244781" id="node_03x15" type="right_before_left" weight_num="3.0" weight_sum="0.740820734342" x="300.00" y="1500.00" />
    <node avg_slowdown_ratio="0.230381569474" id="node_03x16" type="right_before_left" weight_num="2.0" weight_sum="0.460763138948" x="300.00" y="1600.00" />
    <node avg_slowdown_ratio="0.224142068634" id="node_03x17" type="right_before_left" weight_num="3.0" weight_sum="0.672426205903" x="300.00" y="1700.00" />
    <node avg_slowdown_ratio="0.259539236863" id="node_03x18" type="right_before_left" weight_num="4.0" weight_sum="1.03815694745" x="300.00" y="1800.00" />
    <node avg_slowdown_ratio="0.239980801536" id="node_03x19" type="right_before_left" weight_num="3.0" weight_sum="0.719942404607" x="300.00" y="1900.00" />
    <node avg_slowdown_ratio="0.227141828654" id="node_03x20" type="right_before_left" weight_num="2.0" weight_sum="0.454283657308" x="300.00" y="2000.00" />
    <node avg_slowdown_ratio="0.252939764819" id="node_04x00" type="right_before_left" weight_num="3.0" weight_sum="0.758819294456" x="400.00" y="0.00" />
    <node avg_slowdown_ratio="0.237341012719" id="node_04x01" type="right_before_left" weight_num="3.0" weight_sum="0.712023038157" x="400.00" y="100.00" />
    <node avg_slowdown_ratio="0.233261339093" id="node_04x02" type="right_before_left" weight_num="4.0" weight_sum="0.933045356371" x="400.00" y="200.00" />
    <node avg_slowdown_ratio="0.24214062875" id="node_04x03" type="right_before_left" weight_num="3.0" weight_sum="0.72642188625" x="400.00" y="300.00" />
    <node avg_slowdown_ratio="0.254499640027" id="node_04x04" type="right_before_left" weight_num="4.0" weight_sum="1.01799856011" x="400.00" y="400.00" />
    <node avg_slowdown_ratio="0.292476601873" id="node_04x05" type="right_before_left" weight_num="4.0" weight_sum="1.16990640749" x="400.00" y="500.00" />
    <node avg_slowdown_ratio="0.285337173026" id="node_04x06" type="right_before_left" weight_num="3.0" weight_sum="0.856011519079" x="400.00" y="600.00" />
    <node avg_slowdown_ratio="0.2656587473" id="node_04x07" type="right_before_left" weight_num="3.0" weight_sum="0.7969762419" x="400.00" y="700.00" />
    <node avg_slowdown_ratio="0.271418286537" id="node_04x08" type="right_before_left" weight_num="3.0" weight_sum="0.814254859612" x="400.00" y="800.00" />
    <node avg_slowdown_ratio="0.341432685385" id="node_04x09" type="right_before_left" weight_num="4.0" weight_sum="1.36573074154" x="400.00" y="900.00" />
    <node avg_slowdown_ratio="0.312275017998" id="node_04x10" type="right_before_left" weight_num="4.0" weight_sum="1.24910007199" x="400.00" y="1000.00" />
    <node avg_slowdown_ratio="0.26241900648" id="node_04x11" type="right_before_left" weight_num="4.0" weight_sum="1.04967602592" x="400.00" y="1100.00" />
    <node avg_slowdown_ratio="0.274658027358" id="node_04x12" type="right_before_left" weight_num="4.0" weight_sum="1.09863210943" x="400.00" y="1200.00" />
    <node avg_slowdown_ratio="0.23902087833" id="node_04x13" type="right_before_left" weight_num="3.0" weight_sum="0.717062634989" x="400.00" y="1300.00" />
    <node avg_slowdown_ratio="0.273218142547" id="node_04x14" type="right_before_left" weight_num="4.0" weight_sum="1.09287257019" x="400.00" y="1400.00" />
    <node avg_slowdown_ratio="0.25" id="node_04x15" type="right_before_left" weight_num="4.0" weight_sum="1.0" x="400.00" y="1500.00" />
    <node avg_slowdown_ratio="0.254139668827" id="node_04x16" type="right_before_left" weight_num="3.0" weight_sum="0.76241900648" x="400.00" y="1600.00" />
    <node avg_slowdown_ratio="0.252879769618" id="node_04x17" type="right_before_left" weight_num="4.0" weight_sum="1.01151907847" x="400.00" y="1700.00" />
    <node avg_slowdown_ratio="0.230141588673" id="node_04x18" type="right_before_left" weight_num="3.0" weight_sum="0.690424766019" x="400.00" y="1800.00" />
    <node avg_slowdown_ratio="0.174226061915" id="node_04x19" type="right_before_left" weight_num="1.0" weight_sum="0.174226061915" x="400.00" y="1900.00" />
    <node avg_slowdown_ratio="0.289896808255" id="node_04x20" type="right_before_left" weight_num="3.0" weight_sum="0.869690424765" x="400.00" y="2000.00" />
    <node avg_slowdown_ratio="0.263978881689" id="node_05x00" type="right_before_left" weight_num="3.0" weight_sum="0.791936645068" x="500.00" y="0.00" />
    <node avg_slowdown_ratio="0.218142548596" id="node_05x01" type="right_before_left" weight_num="2.0" weight_sum="0.436285097192" x="500.00" y="100.00" />
    <node avg_slowdown_ratio="0.253419726422" id="node_05x02" type="right_before_left" weight_num="4.0" weight_sum="1.01367890569" x="500.00" y="200.00" />
    <node avg_slowdown_ratio="0.248860091193" id="node_05x03" type="right_before_left" weight_num="3.0" weight_sum="0.746580273578" x="500.00" y="300.00" />
    <node avg_slowdown_ratio="0.212383009359" id="node_05x04" type="right_before_left" weight_num="2.0" weight_sum="0.424766018718" x="500.00" y="400.00" />
    <node avg_slowdown_ratio="0.255339572834" id="node_05x05" type="right_before_left" weight_num="3.0" weight_sum="0.766018718503" x="500.00" y="500.00" />
    <node avg_slowdown_ratio="0.249340052796" id="node_05x06" type="right_before_left" weight_num="3.0" weight_sum="0.748020158387" x="500.00" y="600.00" />
    <node avg_slowdown_ratio="0.241900647948" id="node_05x07" type="right_before_left" weight_num="3.0" weight_sum="0.725701943845" x="500.00" y="700.00" />
    <node avg_slowdown_ratio="0.252939764819" id="node_05x08" type="right_before_left" weight_num="3.0" weight_sum="0.758819294456" x="500.00" y="800.00" />
    <node avg_slowdown_ratio="0.287257019438" id="node_05x09" type="right_before_left" weight_num="3.0" weight_sum="0.861771058315" x="500.00" y="900.00" />
    <node avg_slowdown_ratio="0.266138708903" id="node_05x10" type="right_before_left" weight_num="3.0" weight_sum="0.79841612671" x="500.00" y="1000.00" />
    <node avg_slowdown_ratio="0.243340532757" id="node_05x11" type="right_before_left" weight_num="3.0" weight_sum="0.730021598272" x="500.00" y="1100.00" />
    <node avg_slowdown_ratio="0.232061435085" id="node_05x12" type="right_before_left" weight_num="3.0" weight_sum="0.696184305255" x="500.00" y="1200.00" />
    <node avg_slowdown_ratio="0.250779937605" id="node_05x13" type="right_before_left" weight_num="3.0" weight_sum="0.752339812815" x="500.00" y="1300.00" />
    <node avg_slowdown_ratio="0.290136789058" id="node_05x14" type="right_before_left" weight_num="4.0" weight_sum="1.16054715623" x="500.00" y="1400.00" />
    <node avg_slowdown_ratio="0.281137509" id="node_05x15" type="right_before_left" weight_num="4.0" weight_sum="1.124550036" x="500.00" y="1500.00" />
    <node avg_slowdown_ratio="0.255759539237" id="node_05x16" type="right_before_left" weight_num="4.0" weight_sum="1.02303815695" x="500.00" y="1600.00" />
    <node avg_slowdown_ratio="0.258459323255" id="node_05x17" type="right_before_left" weight_num="4.0" weight_sum="1.03383729302" x="500.00" y="1700.00" />
    <node avg_slowdown_ratio="0.280237580995" id="node_05x18" type="right_before_left" weight_num="4.0" weight_sum="1.12095032398" x="500.00" y="1800.00" />
    <node avg_slowdown_ratio="0.0755939524838" id="node_05x19" type="right_before_left" weight_num="1.0" weight_sum="0.0755939524838" x="500.00" y="1900.00" />
    <node avg_slowdown_ratio="0.242980561555" id="node_05x20" type="right_before_left" weight_num="2.0" weight_sum="0.48596112311" x="500.00" y="2000.00" />
    <node avg_slowdown_ratio="0.235061195104" id="node_06x00" type="right_before_left" weight_num="2.0" weight_sum="0.470122390209" x="600.00" y="0.00" />
    <node avg_slowdown_ratio="0.219942404608" id="node_06x01" type="right_before_left" weight_num="2.0" weight_sum="0.439884809215" x="600.00" y="100.00" />
    <node avg_slowdown_ratio="0.243340532758" id="node_06x02" type="right_before_left" weight_num="4.0" weight_sum="0.97336213103" x="600.00" y="200.00" />
    <node avg_slowdown_ratio="0.268538516918" id="node_06x03" type="right_before_left" weight_num="4.0" weight_sum="1.07415406767" x="600.00" y="300.00" />
    <node avg_slowdown_ratio="0.25773938085" id="node_06x04" type="right_before_left" weight_num="3.0" weight_sum="0.773218142549" x="600.00" y="400.00" />
    <node avg_slowdown_ratio="0.355831533478" id="node_06x05" type="right_before_left" weight_num="4.0" weight_sum="1.42332613391" x="600.00" y="500.00" />
    <node avg_slowdown_ratio="0.261099112071" id="node_06x06" type="right_before_left" weight_num="3.0" weight_sum="0.783297336213" x="600.00" y="600.00" />
    <node avg_slowdown_ratio="0.247120230381" id="node_06x07" type="right_before_left" weight_num="4.0" weight_sum="0.988480921525" x="600.00" y="700.00" />
    <node avg_slowdown_ratio="0.261339092873" id="node_06x08" type="right_before_left" weight_num="4.0" weight_sum="1.04535637149" x="600.00" y="800.00" />
    <node avg_slowdown_ratio="0.313534917207" id="node_06x09" type="right_before_left" weight_num="4.0" weight_sum="1.25413966883" x="600.00" y="900.00" />
    <node avg_slowdown_ratio="0.282577393808" id="node_06x10" type="right_before_left" weight_num="4.0" weight_sum="1.13030957523" x="600.00" y="1000.00" />
    <node avg_slowdown_ratio="0.251259899208" id="node_06x11" type="right_before_left" weight_num="3.0" weight_sum="0.753779697624" x="600.00" y="1100.00" />
    <node avg_slowdown_ratio="0.31407487401" id="node_06x12" type="right_before_left" weight_num="4.0" weight_sum="1.25629949604" x="600.00" y="1200.00" />
    <node avg_slowdown_ratio="0.259179265657" id="node_06x13" type="right_before_left" weight_num="4.0" weight_sum="1.03671706263" x="600.00" y="1300.00" />
    <node avg_slowdown_ratio="0.324514038878" id="node_06x14" type="right_before_left" weight_num="4.0" weight_sum="1.29805615551" x="600.00" y="1400.00" />
    <node avg_slowdown_ratio="0.270698344132" id="node_06x15" type="right_before_left" weight_num="4.0" weight_sum="1.08279337653" x="600.00" y="1500.00" />
    <node avg_slowdown_ratio="0.262059035277" id="node_06x16" type="right_before_left" weight_num="2.0" weight_sum="0.524118070554" x="600.00" y="1600.00" />
    <node avg_slowdown_ratio="0.255339572834" id="node_06x17" type="right_before_left" weight_num="3.0" weight_sum="0.766018718502" x="600.00" y="1700.00" />
    <node avg_slowdown_ratio="0.252219822414" id="node_06x18" type="right_before_left" weight_num="3.0" weight_sum="0.756659467243" x="600.00" y="1800.00" />
    <node avg_slowdown_ratio="0.211303095753" id="node_06x19" type="right_before_left" weight_num="2.0" weight_sum="0.422606191505" x="600.00" y="1900.00" />
    <node avg_slowdown_ratio="0.258459323254" id="node_06x20" type="right_before_left" weight_num="3.0" weight_sum="0.775377969762" x="600.00" y="2000.00" />
    <node avg_slowdown_ratio="0.246580273578" id="node_07x00" type="right_before_left" weight_num="2.0" weight_sum="0.493160547157" x="700.00" y="0.00" />
    <node avg_slowdown_ratio="0.246460283177" id="node_07x01" type="right_before_left" weight_num="3.0" weight_sum="0.739380849532" x="700.00" y="100.00" />
    <node avg_slowdown_ratio="0.257199424045" id="node_07x02" type="right_before_left" weight_num="4.0" weight_sum="1.02879769618" x="700.00" y="200.00" />
    <node avg_slowdown_ratio="0.260079193665" id="node_07x03" type="right_before_left" weight_num="4.0" weight_sum="1.04031677466" x="700.00" y="300.00" />
    <node avg_slowdown_ratio="0.224622030237" id="node_07x04" type="right_before_left" weight_num="2.0" weight_sum="0.449244060475" x="700.00" y="400.00" />
    <node avg_slowdown_ratio="0.304295656348" id="node_07x05" type="right_before_left" weight_num="3.0" weight_sum="0.912886969043" x="700.00" y="500.00" />
    <node avg_slowdown_ratio="0.24382049436" id="node_07x06" type="right_before_left" weight_num="3.0" weight_sum="0.731461483081" x="700.00" y="600.00" />
    <node avg_slowdown_ratio="0.27339812815" id="node_07x07" type="right_before_left" weight_num="4.0" weight_sum="1.0935925126" x="700.00" y="700.00" />
    <node avg_slowdown_ratio="0.250299976002" id="node_07x08" type="right_before_left" weight_num="3.0" weight_sum="0.750899928006" x="700.00" y="800.00" />
    <node avg_slowdown_ratio="0.342692584593" id="node_07x09" type="right_before_left" weight_num="4.0" weight_sum="1.37077033837" x="700.00" y="900.00" />
    <node avg_slowdown_ratio="0.261879049675" id="node_07x10" type="right_before_left" weight_num="4.0" weight_sum="1.0475161987" x="700.00" y="1000.00" />
    <node avg_slowdown_ratio="0.27807775378" id="node_07x11" type="right_before_left" weight_num="4.0" weight_sum="1.11231101512" x="700.00" y="1100.00" />
    <node avg_slowdown_ratio="0.260259179265" id="node_07x12" type="right_before_left" weight_num="4.0" weight_sum="1.04103671706" x="700.00" y="1200.00" />
    <node avg_slowdown_ratio="0.252219822414" id="node_07x13" type="right_before_left" weight_num="3.0" weight_sum="0.756659467243" x="700.00" y="1300.00" />
    <node avg_slowdown_ratio="0.299016078714" id="node_07x14" type="right_before_left" weight_num="3.0" weight_sum="0.897048236141" x="700.00" y="1400.00" />
    <node avg_slowdown_ratio="0.267458603312" id="node_07x15" type="right_before_left" weight_num="2.0" weight_sum="0.534917206623" x="700.00" y="1500.00" />
    <node avg_slowdown_ratio="0.235421166307" id="node_07x16" type="right_before_left" weight_num="2.0" weight_sum="0.470842332613" x="700.00" y="1600.00" />
    <node avg_slowdown_ratio="0.22966162707" id="node_07x17" type="right_before_left" weight_num="2.0" weight_sum="0.45932325414" x="700.00" y="1700.00" />
    <node avg_slowdown_ratio="0.132469402448" id="node_07x18" type="right_before_left" weight_num="1.0" weight_sum="0.132469402448" x="700.00" y="1800.00" />
    <node avg_slowdown_ratio="0.256059515239" id="node_07x19" type="right_before_left" weight_num="3.0" weight_sum="0.768178545716" x="700.00" y="1900.00" />
    <node avg_slowdown_ratio="0.230741540676" id="node_07x20" type="right_before_left" weight_num="2.0" weight_sum="0.461483081353" x="700.00" y="2000.00" />
    <node avg_slowdown_ratio="0.245860331174" id="node_08x00" type="right_before_left" weight_num="2.0" weight_sum="0.491720662347" x="800.00" y="0.00" />
    <node avg_slowdown_ratio="0.28761699064" id="node_08x01" type="right_before_left" weight_num="4.0" weight_sum="1.15046796256" x="800.00" y="100.00" />
    <node avg_slowdown_ratio="0.25773938085" id="node_08x02" type="right_before_left" weight_num="4.0" weight_sum="1.0309575234" x="800.00" y="200.00" />
    <node avg_slowdown_ratio="0.286777057835" id="node_08x03" type="right_before_left" weight_num="3.0" weight_sum="0.860331173506" x="800.00" y="300.00" />
    <node avg_slowdown_ratio="0.260139188865" id="node_08x04" type="right_before_left" weight_num="3.0" weight_sum="0.780417566595" x="800.00" y="400.00" />
    <node avg_slowdown_ratio="0.447984161268" id="node_08x05" type="right_before_left" weight_num="4.0" weight_sum="1.79193664507" x="800.00" y="500.00" />
    <node avg_slowdown_ratio="0.265178785697" id="node_08x06" type="right_before_left" weight_num="3.0" weight_sum="0.795536357091" x="800.00" y="600.00" />
    <node avg_slowdown_ratio="0.252219822414" id="node_08x07" type="right_before_left" weight_num="3.0" weight_sum="0.756659467242" x="800.00" y="700.00" />
    <node avg_slowdown_ratio="0.141108711303" id="node_08x08" type="right_before_left" weight_num="1.0" weight_sum="0.141108711303" x="800.00" y="800.00" />
    <node avg_slowdown_ratio="0.300455963523" id="node_08x09" type="right_before_left" weight_num="3.0" weight_sum="0.901367890568" x="800.00" y="900.00" />
    <node avg_slowdown_ratio="0.243340532757" id="node_08x10" type="right_before_left" weight_num="2.0" weight_sum="0.486681065514" x="800.00" y="1000.00" />
    <node avg_slowdown_ratio="0.262059035277" id="node_08x11" type="right_before_left" weight_num="3.0" weight_sum="0.786177105831" x="800.00" y="1100.00" />
    <node avg_slowdown_ratio="0.274118070555" id="node_08x12" type="right_before_left" weight_num="4.0" weight_sum="1.09647228222" x="800.00" y="1200.00" />
    <node avg_slowdown_ratio="0.301835853132" id="node_08x13" type="right_before_left" weight_num="4.0" weight_sum="1.20734341253" x="800.00" y="1300.00" />
    <node avg_slowdown_ratio="0.283657307415" id="node_08x14" type="right_before_left" weight_num="3.0" weight_sum="0.850971922246" x="800.00" y="1400.00" />
    <node avg_slowdown_ratio="0.27501799856" id="node_08x15" type="right_before_left" weight_num="3.0" weight_sum="0.82505399568" x="800.00" y="1500.00" />
    <node avg_slowdown_ratio="0.336933045358" id="node_08x16" type="right_before_left" weight_num="4.0" weight_sum="1.34773218143" x="800.00" y="1600.00" />
    <node avg_slowdown_ratio="0.278377729782" id="node_08x17" type="right_before_left" weight_num="3.0" weight_sum="0.835133189346" x="800.00" y="1700.00" />
    <node avg_slowdown_ratio="0.27189824814" id="node_08x18" type="right_before_left" weight_num="3.0" weight_sum="0.81569474442" x="800.00" y="1800.00" />
    <node avg_slowdown_ratio="0.25323974082" id="node_08x19" type="right_before_left" weight_num="4.0" weight_sum="1.01295896328" x="800.00" y="1900.00" />
    <node avg_slowdown_ratio="0.238660907127" id="node_08x20" type="right_before_left" weight_num="2.0" weight_sum="0.477321814255" x="800.00" y="2000.00" />
    <node avg_slowdown_ratio="0.190784737221" id="node_09x00" type="right_before_left" weight_num="1.0" weight_sum="0.190784737221" x="900.00" y="0.00" />