<?xml version='1.0' encoding='UTF-8'?>
<nodes xmlns:xsi="http://www.w3.org/2001/XMLSchema-instance" version="0.27" xsi:noNamespaceSchemaLocation="http://sumo.dlr.de/xsd/edges_file.xsd"><node avg_slowdown_ratio="0.999280057598" id="node_07x07" junction="True" old_x="700.0" old_y="700.0" type="right_before_left" weight_num="4.0" weight_sum="3.99712023039" x="369.743047353" x_displacement_sum="-330.256952647" y="369.743047353" y_displacement_sum="-330.256952647" />
    <node avg_slowdown_ratio="0.999280057598" id="node_07x13" junction="True" old_x="700.0" old_y="1300.0" type="right_before_left" weight_num="4.0" weight_sum="3.99712023039" x="369.743047353" x_displacement_sum="-330.256952647" y="1630.25695265" y_displacement_sum="330.256952647" />
    <node avg_slowdown_ratio="0.999280057598" id="node_13x07" junction="True" old_x="1300.0" old_y="700.0" type="right_before_left" weight_num="4.0" weight_sum="3.99712023039" x="1630.25695265" x_displacement_sum="330.256952647" y="369.743047353" y_displacement_sum="-330.256952647" />
    <node avg_slowdown_ratio="0.999280057598" id="node_13x13" junction="True" old_x="1300.0" old_y="1300.0" type="right_before_left" weight_num="4.0" weight_sum="3.99712023039" x="1630.25695265" x_displacement_sum="330.256952647" y="1630.25695265" y_displacement_sum="330.256952647" />
    <node avg_slowdown_ratio="0.0" id="node_00x00" junction="True" old_x="0.0" old_y="0.0" type="right_before_left" weight_num="2.0" weight_sum="0.0" x="-6.53610037158" x_displacement_sum="-6.53610037158" y="-6.53610037158" y_displacement_sum="-6.53610037158" />
    <node avg_slowdown_ratio="0.0" id="node_00x01" junction="True" old_x="0.0" old_y="100.0" type="right_before_left" weight_num="3.0" weight_sum="0.0" x="-54.1669253745" x_displacement_sum="-54.1669253745" y="53.5712068219" y_displacement_sum="-46.4287931781" />
    <node avg_slowdown_ratio="0.0" id="node_00x02" junction="True" old_x="0.0" old_y="200.0" type="right_before_left" weight_num="3.0" weight_sum="0.0" x="-97.4033964608" x_displacement_sum="-97.4033964608" y="130.426145385" y_displacement_sum="-69.5738546149" />
    <node avg_slowdown_ratio="0.0" id="node_00x03" junction="True" old_x="0.0" old_y="300.0" type="right_before_left" weight_num="3.0" weight_sum="0.0" x="-135.235359607" x_displacement_sum="-135.235359607" y="222.722651653" y_displacement_sum="-77.277348347" />
    <node avg_slowdown_ratio="0.0" id="node_00x04" junction="True" old_x="0.0" old_y="400.0" type="right_before_left" weight_num="3.0" weight_sum="0.0" x="-166.511801815" x_displacement_sum="-166.511801815" y="328.637799222" y_displacement_sum="-71.3622007777" />
    <node avg_slowdown_ratio="0.0" id="node_00x05" junction="True" old_x="0.0" old_y="500.0" type="right_before_left" weight_num="3.0" weight_sum="0.0" x="-190.025155236" x_displacement_sum="-190.025155236" y="445.707098504" y_displacement_sum="-54.2929014959" />
    <node avg_slowdown_ratio="0.0" id="node_00x06" junction="True" old_x="0.0" old_y="600.0" type="right_before_left" weight_num="3.0" weight_sum="0.0" x="-211.204743495" x_displacement_sum="-211.204743495" y="564.225522039" y_displacement_sum="-35.7744779605" />
    <node avg_slowdown_ratio="0.0" id="node_00x07" junction="True" old_x="0.0" old_y="700.0" type="right_before_left" weight_num="3.0" weight_sum="0.0" x="-263.813899439" x_displacement_sum="-263.813899439" y="653.571206822" y_displacement_sum="-46.4287931781" />
    <node avg_slowdown_ratio="0.0" id="node_00x08" junction="True" old_x="0.0" old_y="800.0" type="right_before_left" weight_num="3.0" weight_sum="0.0" x="-302.072039584" x_displacement_sum="-302.072039584" y="759.664522974" y_displacement_sum="-40.335477026" />
    <node avg_slowdown_ratio="0.0" id="node_00x09" junction="True" old_x="0.0" old_y="900.0" type="right_before_left" weight_num="3.0" weight_sum="0.0" x="-325.260514843" x_displacement_sum="-325.260514843" y="877.015553149" y_displacement_sum="-22.9844468511" />
    <node avg_slowdown_ratio="0.0" id="node_00x10" junction="True" old_x="0.0" old_y="1000.0" type="right_before_left" weight_num="3.0" weight_sum="0.0" x="-333.02360363" x_displacement_sum="-333.02360363" y="1000.0" y_displacement_sum="-2.26805241255e-11" />
    <node avg_slowdown_ratio="0.0" id="node_00x11" junction="True" old_x="0.0" old_y="1100.0" type="right_before_left" weight_num="3.0" weight_sum="0.0" x="-325.260514843" x_displacement_sum="-325.260514843" y="1122.98444685" y_displacement_sum="22.9844468511" />
    <node avg_slowdown_ratio="0.0" id="node_00x12" junction="True" old_x="0.0" old_y="1200.0" type="right_before_left" weight_num="3.0" weight_sum="0.0" x="-302.072039583" x_displacement_sum="-302.072039583" y="1240.33547703" y_displacement_sum="40.335477026" />
    <node avg_slowdown_ratio="0.0" id="node_00x13" junction="True" old_x="0.0" old_y="1300.0" type="right_before_left" weight_num="3.0" weight_sum="0.0" x="-263.813899439" x_displacement_sum="-263.813899439" y="1346.42879318" y_displacement_sum="46.4287931781" />
    <node avg_slowdown_ratio="0.0" id="node_00x14" junction="True" old_x="0.0" old_y="1400.0" type="right_before_left" weight_num="3.0" weight_sum="0.0" x="-211.204743494" x_displacement_sum="-211.204743494" y="1435.77447796" y_displacement_sum="35.7744779605" />
    <node avg_slowdown_ratio="0.0" id="node_00x15" junction="True" old_x="0.0" old_y="1500.0" type="right_before_left" weight_num="3.0" weight_sum="0.0" x="-190.025155236" x_displacement_sum="-190.025155236" y="1554.2929015" y_displacement_sum="54.2929014959" />
    <node avg_slowdown_ratio="0.0" id="node_00x16" junction="True" old_x="0.0" old_y="1600.0" type="right_before_left" weight_num="3.0" weight_sum="0.0" x="-166.511801815" x_displacement_sum="-166.511801815" y="1671.36220078" y_displacement_sum="71.3622007777" />
    <node avg_slowdown_ratio="0.0" id="node_00x17" junction="True" old_x="0.0" old_y="1700.0" type="right_before_left" weight_num="3.0" weight_sum="0.0" x="-135.235359607" x_displacement_sum="-135.235359607" y="1777.27734835" y_displacement_sum="77.277348347" />
    <node avg_slowdown_ratio="0.0" id="node_00x18" junction="True" old_x="0.0" old_y="1800.0" type="right_before_left" weight_num="3.0" weight_sum="0.0" x="-97.4033964608" x_displacement_sum="-97.4033964608" y="1869.57385461" y_displacement_sum="69.5738546149" />
    <node avg_slowdown_ratio="0.0" id="node_00x19" junction="True" old_x="0.0" old_y="1900.0" type="right_before_left" weight_num="3.0" weight_sum="0.0" x="-54.1669253745" x_displacement_sum="-54.1669253745" y="1946.42879318" y_displacement_sum="46.4287931781" />
    <node avg_slowdown_ratio="0.0" id="node_00x20" junction="True" old_x="0.0" old_y="2000.0" type="right_before_left" weight_num="2.0" weight_sum="0.0" x="-6.53610037158" x_displacement_sum="-6.53610037158" y="2006.53610037" y_displacement_sum="6.53610037158" />
    <node avg_slowdown_ratio="0.0" id="node_01x00" junction="True" old_x="100.0" old_y="0.0" type="right_before_left" weight_num="3.0" weight_sum="0.0" x="53.5712068219" x_displacement_sum="-46.4287931781" y="-54.1669253745" y_displacement_sum="-54.1669253745" />
    <node avg_slowdown_ratio="0.0" id="node_01x01" junction="True" old_x="100.0" old_y="100.0" type="right_before_left" weight_num="4.0" weight_sum="0.0" x="9.4836813597" x_displacement_sum="-90.5163186403" y="9.4836813597" y_displacement_sum="-90.5163186403" />
    <node avg_slowdown_ratio="0.0" id="node_01x02" junction="True" old_x="100.0" old_y="200.0" type="right_before_left" weight_num="4.0" weight_sum="0.0" x="-31.047400585" x_displacement_sum="-131.047400585" y="90.793832846" y_displacement_sum="-109.206167154" />
    <node avg_slowdown_ratio="0.0" id="node_01x03" junction="True" old_x="100.0" old_y="300.0" type="right_before_left" weight_num="4.0" weight_sum="0.0" x="-67.022127815" x_displacement_sum="-167.022127815" y="188.65191479" y_displacement_sum="-111.34808521" />
    <node avg_slowdown_ratio="0.0" id="node_01x04" junction="True" old_x="100.0" old_y="400.0" type="right_before_left" weight_num="4.0" weight_sum="0.0" x="-97.217784054" x_displacement_sum="-197.217784054" y="301.391107973" y_displacement_sum="-98.608892027" />
    <node avg_slowdown_ratio="0.0" id="node_01x05" junction="True" old_x="100.0" old_y="500.0" type="right_before_left" weight_num="4.0" weight_sum="0.0" x="-120.253285018" x_displacement_sum="-220.253285018" y="426.582238327" y_displacement_sum="-73.4177616726" />
    <node avg_slowdown_ratio="0.0" id="node_01x06" junction="True" old_x="100.0" old_y="600.0" type="right_before_left" weight_num="4.0" weight_sum="0.0" x="-181.200097736" x_displacement_sum="-281.200097736" y="506.704523866" y_displacement_sum="-93.2954761341" />
    <node avg_slowdown_ratio="0.0" id="node_01x07" junction="True" old_x="100.0" old_y="700.0" type="right_before_left" weight_num="4.0" weight_sum="0.0" x="-230.256952647" x_displacement_sum="-330.256952647" y="609.48368136" y_displacement_sum="-90.5163186403" />
    <node avg_slowdown_ratio="0.0" id="node_01x08" junction="True" old_x="100.0" old_y="800.0" type="right_before_left" weight_num="4.0" weight_sum="0.0" x="-265.818705143" x_displacement_sum="-365.818705143" y="729.922383606" y_displacement_sum="-70.0776163944" />
    <node avg_slowdown_ratio="0.0" id="node_01x09" junction="True" old_x="100.0" old_y="900.0" type="right_before_left" weight_num="4.0" weight_sum="0.0" x="-287.275412833" x_displacement_sum="-387.275412833" y="862.069676463" y_displacement_sum="-37.9303235374" />
    <node avg_slowdown_ratio="0.0" id="node_01x10" junction="True" old_x="100.0" old_y="1000.0" type="right_before_left" weight_num="4.0" weight_sum="0.0" x="-294.435568108" x_displacement_sum="-394.435568108" y="1000.0" y_displacement_sum="-3.38218342222e-12" />
    <node avg_slowdown_ratio="0.0" id="node_01x11" junction="True" old_x="100.0" old_y="1100.0" type="right_before_left" weight_num="4.0" weight_sum="0.0" x="-287.275412833" x_displacement_sum="-387.275412833" y="1137.93032354" y_displacement_sum="37.9303235374" />
    <node avg_slowdown_ratio="0.0" id="node_01x12" junction="True" old_x="100.0" old_y="1200.0" type="right_before_left" weight_num="4.0" weight_sum="0.0" x="-265.818705143" x_displacement_sum="-365.818705143" y="1270.07761639" y_displacement_sum="70.0776163944" />
    <node avg_slowdown_ratio="0.0" id="node_01x13" junction="True" old_x="100.0" old_y="1300.0" type="right_before_left" weight_num="4.0" weight_sum="0.0" x="-230.256952647" x_displacement_sum="-330.256952647" y="1390.51631864" y_displacement_sum="90.5163186403" />
    <node avg_slowdown_ratio="0.0" id="node_01x14" junction="True" old_x="100.0" old_y="1400.0" type="right_before_left" weight_num="4.0" weight_sum="0.0" x="-181.200097736" x_displacement_sum="-281.200097736" y="1493.29547613" y_displacement_sum="93.2954761341" />
    <node avg_slowdown_ratio="0.0" id="node_01x15" junction="True" old_x="100.0" old_y="1500.0" type="right_before_left" weight_num="4.0" weight_sum="0.0" x="-120.253285018" x_displacement_sum="-220.253285018" y="1573.41776167" y_displacement_sum="73.4177616726" />
    <node avg_slowdown_ratio="0.0" id="node_01x16" junction="True" old_x="100.0" old_y="1600.0" type="right_before_left" weight_num="4.0" weight_sum="0.0" x="-97.217784054" x_displacement_sum="-197.217784054" y="1698.60889203" y_displacement_sum="98.608892027" />
    <node avg_slowdown_ratio="0.0" id="node_01x17" junction="True" old_x="100.0" old_y="1700.0" type="right_before_left" weight_num="4.0" weight_sum="0.0" x="-67.022127815" x_displacement_sum="-167.022127815" y="1811.34808521" y_displacement_sum="111.34808521" />
    <node avg_slowdown_ratio="0.0" id="node_01x18" junction="True" old_x="100.0" old_y="1800.0" type="right_before_left" weight_num="4.0" weight_sum="0.0" x="-31.047400585" x_displacement_sum="-131.047400585" y="1909.20616715" y_displacement_sum="109.206167154" />
    <node avg_slowdown_ratio="0.0" id="node_01x19" junction="True" old_x="100.0" old_y="1900.0" type="right_before_left" weight_num="4.0" weight_sum="0.0" x="9.4836813597" x_displacement_sum="-90.5163186403" y="1990.51631864" y_displacement_sum="90.5163186403" />
    <node avg_slowdown_ratio="0.0" id="node_01x20" junction="True" old_x="100.0" old_y="2000.0" type="right_before_left" weight_num="3.0" weight_sum="0.0" x="53.5712068219" x_displacement_sum="-46.4287931781" y="2054.16692537" y_displacement_sum="54.1669253745" />
    <node avg_slowdown_ratio="0.0" id="node_02x00" junction="True" old_x="200.0" old_y="0.0" type="right_before_left" weight_num="3.0" weight_sum="0.0" x="130.426145385" x_displacement_sum="-69.5738546149" y="-97.4033964608" y_displacement_sum="-97.4033964608" />
    <node avg_slowdown_ratio="0.0" id="node_02x01" junction="True" old_x="200.0" old_y="100.0" type="right_before_left" weight_num="4.0" weight_sum="0.0" x="90.793832846" x_displacement_sum="-109.206167154" y="-31.047400585" y_displacement_sum="-131.047400585" />
    <node avg_slowdown_ratio="0.0" id="node_02x02" junction="True" old_x="200.0" old_y="200.0" type="right_before_left" weight_num="4.0" weight_sum="0.0" x="53.808112055" x_displacement_sum="-146.191887945" y="53.808112055" y_displacement_sum="-146.191887945" />
    <node avg_slowdown_ratio="0.0" id="node_02x03" junction="True" old_x="200.0" old_y="300.0" type="right_before_left" weight_num="4.0" weight_sum="0.0" x="20.386871966" x_displacement_sum="-179.613128034" y="156.309497573" y_displacement_sum="-143.690502427" />
    <node avg_slowdown_ratio="0.0" id="node_02x04" junction="True" old_x="200.0" old_y="400.0" type="right_before_left" weight_num="4.0" weight_sum="0.0" x="-8.242356559" x_displacement_sum="-208.242356559" y="275.054586065" y_displacement_sum="-124.945413935" />
    <node avg_slowdown_ratio="0.0" id="node_02x05" junction="True" old_x="200.0" old_y="500.0" type="right_before_left" weight_num="4.0" weight_sum="0.0" x="-58.508872137" x_displacement_sum="-258.508872137" y="363.04312805" y_displacement_sum="-136.95687195" />
    <node avg_slowdown_ratio="0.0" id="node_02x06" junction="True" old_x="200.0" old_y="600.0" type="right_before_left" weight_num="4.0" weight_sum="0.0" x="-114.439196677" x_displacement_sum="-314.439196677" y="453.623535127" y_displacement_sum="-146.376464873" />
    <node avg_slowdown_ratio="0.0" id="node_02x07" junction="True" old_x="200.0" old_y="700.0" type="right_before_left" weight_num="4.0" weight_sum="0.0" x="-159.026051881" x_displacement_sum="-359.026051881" y="568.952599415" y_displacement_sum="-131.047400585" />
    <node avg_slowdown_ratio="0.0" id="node_02x08" junction="True" old_x="200.0" old_y="800.0" type="right_before_left" weight_num="4.0" weight_sum="0.0" x="-191.057230007" x_displacement_sum="-391.057230007" y="702.781180468" y_displacement_sum="-97.2188195323" />
    <node avg_slowdown_ratio="0.0" id="node_02x09" junction="True" old_x="200.0" old_y="900.0" type="right_before_left" weight_num="4.0" weight_sum="0.0" x="-210.160897591" x_displacement_sum="-410.160897591" y="848.528605396" y_displacement_sum="-51.4713946044" />
    <node avg_slowdown_ratio="0.0" id="node_02x10" junction="True" old_x="200.0" old_y="1000.0" type="right_before_left" weight_num="4.0" weight_sum="0.0" x="-216.484713118" x_displacement_sum="-416.484713118" y="1000.0" y_displacement_sum="-4.6856030167e-10" />
    <node avg_slowdown_ratio="0.0" id="node_02x11" junction="True" old_x="200.0" old_y="1100.0" type="right_before_left" weight_num="4.0" weight_sum="0.0" x="-210.160897591" x_displacement_sum="-410.160897591" y="1151.4713946" y_displacement_sum="51.4713946041" />
    <node avg_slowdown_ratio="0.0" id="node_02x12" junction="True" old_x="200.0" old_y="1200.0" type="right_before_left" weight_num="4.0" weight_sum="0.0" x="-191.057230007" x_displacement_sum="-391.057230007" y="1297.21881953" y_displacement_sum="97.2188195326" />
    <node avg_slowdown_ratio="0.0" id="node_02x13" junction="True" old_x="200.0" old_y="1300.0" type="right_before_left" weight_num="4.0" weight_sum="0.0" x="-159.026051881" x_displacement_sum="-359.026051881" y="1431.04740059" y_displacement_sum="131.047400585" />
    <node avg_slowdown_ratio="0.0" id="node_02x14" junction="True" old_x="200.0" old_y="1400.0" type="right_before_left" weight_num="4.0" weight_sum="0.0" x="-114.439196677" x_displacement_sum="-314.439196677" y="1546.37646487" y_displacement_sum="146.376464873" />
    <node avg_slowdown_ratio="0.0" id="node_02x15" junction="True" old_x="200.0" old_y="1500.0" type="right_before_left" weight_num="4.0" weight_sum="0.0" x="-58.508872137" x_displacement_sum="-258.508872137" y="1636.95687195" y_displacement_sum="136.95687195" />
    <node avg_slowdown_ratio="0.0" id="node_02x16" junction="True" old_x="200.0" old_y="1600.0" type="right_before_left" weight_num="4.0" weight_sum="0.0" x="-8.242356559" x_displacement_sum="-208.242356559" y="1724.94541394" y_displacement_sum="124.945413935" />
    <node avg_slowdown_ratio="0.0" id="node_02x17" junction="True" old_x="200.0" old_y="1700.0" type="right_before_left" weight_num="4.0" weight_sum="0.0" x="20.386871966" x_displacement_sum="-179.613128034" y="1843.69050243" y_displacement_sum="143.690502427" />
    <node avg_slowdown_ratio="0.0" id="node_02x18" junction="True" old_x="200.0" old_y="1800.0" type="right_before_left" weight_num="4.0" weight_sum="0.0" x="53.808112055" x_displacement_sum="-146.191887945" y="1946.19188794" y_displacement_sum="146.191887945" />
    <node avg_slowdown_ratio="0.0" id="node_02x19" junction="True" old_x="200.0" old_y="1900.0" type="right_before_left" weight_num="4.0" weight_sum="0.0" x="90.793832846" x_displacement_sum="-109.206167154" y="2031.04740059" y_displacement_sum="131.047400585" />
    <node avg_slowdown_ratio="0.0" id="node_02x20" junction="True" old_x="200.0" old_y="2000.0" type="right_before_left" weight_num="3.0" weight_sum="0.0" x="130.426145385" x_displacement_sum="-69.5738546149" y="2097.40339646" y_displacement_sum="97.4033964608" />
    <node avg_slowdown_ratio="0.0" id="node_03x00" junction="True" old_x="300.0" old_y="0.0" type="right_before_left" weight_num="3.0" weight_sum="0.0" x="222.722651653" x_displacement_sum="-77.277348347" y="-135.235359607" y_displacement_sum="-135.235359607" />
    <node avg_slowdown_ratio="0.0" id="node_03x01" junction="True" old_x="300.0" old_y="100.0" type="right_before_left" weight_num="4.0" weight_sum="0.0" x="188.65191479" x_displacement_sum="-111.34808521" y="-67.022127815" y_displacement_sum="-167.022127815" />
    <node avg_slowdown_ratio="0.0" id="node_03x02" junction="True" old_x="300.0" old_y="200.0" type="right_before_left" weight_num="4.0" weight_sum="0.0" x="156.309497573" x_displacement_sum="-143.690502427" y="20.386871966" y_displacement_sum="-179.613128034" />
    <node avg_slowdown_ratio="0.0" id="node_03x03" junction="True" old_x="300.0" old_y="300.0" type="right_before_left" weight_num="4.0" weight_sum="0.0" x="126.437191715" x_displacement_sum="-173.562808285" y="126.437191715" y_displacement_sum="-173.562808285" />
    <node avg_slowdown_ratio="0.0" id="node_03x04" junction="True" old_x="300.0" old_y="400.0" type="right_before_left" weight_num="4.0" weight_sum="0.0" x="94.382233044" x_displacement_sum="-205.617766956" y="237.143886022" y_displacement_sum="-162.856113978" />
    <node avg_slowdown_ratio="0.0" id="node_03x05" junction="True" old_x="300.0" old_y="500.0" type="right_before_left" weight_num="4.0" weight_sum="0.0" x="37.042954594" x_displacement_sum="-262.957045406" y="305.564431892" y_displacement_sum="-194.435568108" />
    <node avg_slowdown_ratio="0.0" id="node_03x06" junction="True" old_x="300.0" old_y="600.0" type="right_before_left" weight_num="4.0" weight_sum="0.0" x="-12.234301835" x_displacement_sum="-312.234301835" y="406.025402021" y_displacement_sum="-193.974597979" />
    <node avg_slowdown_ratio="0.0" id="node_03x07" junction="True" old_x="300.0" old_y="700.0" type="right_before_left" weight_num="4.0" weight_sum="0.0" x="-51.232811435" x_displacement_sum="-351.232811435" y="532.977872185" y_displacement_sum="-167.022127815" />
    <node avg_slowdown_ratio="0.0" id="node_03x08" junction="True" old_x="300.0" old_y="800.0" type="right_before_left" weight_num="4.0" weight_sum="0.0" x="-78.647455915" x_displacement_sum="-378.647455915" y="679.126110338" y_displacement_sum="-120.873889662" />
    <node avg_slowdown_ratio="0.0" id="node_03x09" junction="True" old_x="300.0" old_y="900.0" type="right_before_left" weight_num="4.0" weight_sum="0.0" x="-94.548490087" x_displacement_sum="-394.548490087" y="836.930032616" y_displacement_sum="-63.0699673836" />
    <node avg_slowdown_ratio="0.0" id="node_03x10" junction="True" old_x="300.0" old_y="1000.0" type="right_before_left" weight_num="4.0" weight_sum="0.0" x="-99.711815564" x_displacement_sum="-399.711815564" y="1000.0" y_displacement_sum="-1.26561872094e-10" />
    <node avg_slowdown_ratio="0.0" id="node_03x11" junction="True" old_x="300.0" old_y="1100.0" type="right_before_left" weight_num="4.0" weight_sum="0.0" x="-94.548490087" x_displacement_sum="-394.548490087" y="1163.06996738" y_displacement_sum="63.0699673841" />
    <node avg_slowdown_ratio="0.0" id="node_03x12" junction="True" old_x="300.0" old_y="1200.0" type="right_before_left" weight_num="4.0" weight_sum="0.0" x="-78.647455915" x_displacement_sum="-378.647455915" y="1320.87388966" y_displacement_sum="120.873889662" />
    <node avg_slowdown_ratio="0.0" id="node_03x13" junction="True" old_x="300.0" old_y="1300.0" type="right_before_left" weight_num="4.0" weight_sum="0.0" x="-51.232811435" x_displacement_sum="-351.232811435" y="1467.02212781" y_displacement_sum="167.022127815" />
    <node avg_slowdown_ratio="0.0" id="node_03x14" junction="True" old_x="300.0" old_y="1400.0" type="right_before_left" weight_num="4.0" weight_sum="0.0" x="-12.234301835" x_displacement_sum="-312.234301835" y="1593.97459798" y_displacement_sum="193.974597979" />
    <node avg_slowdown_ratio="0.0" id="node_03x15" junction="True" old_x="300.0" old_y="1500.0" type="right_before_left" weight_num="4.0" weight_sum="0.0" x="37.042954595" x_displacement_sum="-262.957045405" y="1694.43556811" y_displacement_sum="194.435568108" />
    <node avg_slowdown_ratio="0.0" id="node_03x16" junction="True" old_x="300.0" old_y="1600.0" type="right_before_left" weight_num="4.0" weight_sum="0.0" x="94.382233044" x_displacement_sum="-205.617766956" y="1762.85611398" y_displacement_sum="162.856113978" />
    <node avg_slowdown_ratio="0.0" id="node_03x17" junction="True" old_x="300.0" old_y="1700.0" type="right_before_left" weight_num="4.0" weight_sum="0.0" x="126.437191715" x_displacement_sum="-173.562808285" y="1873.56280829" y_displacement_sum="173.562808285" />
    <node avg_slowdown_ratio="0.0" id="node_03x18" junction="True" old_x="300.0" old_y="1800.0" type="right_before_left" weight_num="4.0" weight_sum="0.0" x="156.309497573" x_displacement_sum="-143.690502427" y="1979.61312803" y_displacement_sum="179.613128034" />
    <node avg_slowdown_ratio="0.0" id="node_03x19" junction="True" old_x="300.0" old_y="1900.0" type="right_before_left" weight_num="4.0" weight_sum="0.0" x="188.65191479" x_displacement_sum="-111.34808521" y="2067.02212782" y_displacement_sum="167.022127815" />
    <node avg_slowdown_ratio="0.0" id="node_03x20" junction="True" old_x="300.0" old_y="2000.0" type="right_before_left" weight_num="3.0" weight_sum="0.0" x="222.722651653" x_displacement_sum="-77.277348347" y="2135.23535961" y_displacement_sum="135.235359607" />
    <node avg_slowdown_ratio="0.0" id="node_04x00" junction="True" old_x="400.0" old_y="0.0" type="right_before_left" weight_num="3.0" weight_sum="0.0" x="328.637799222" x_displacement_sum="-71.3622007777" y="-166.511801815" y_displacement_sum="-166.511801815" />
    <node avg_slowdown_ratio="0.0" id="node_04x01" junction="True" old_x="400.0" old_y="100.0" type="right_before_left" weight_num="4.0" weight_sum="0.0" x="301.391107973" x_displacement_sum="-98.608892027" y="-97.217784054" y_displacement_sum="-197.217784054" />
    <node avg_slowdown_ratio="0.0" id="node_04x02" junction="True" old_x="400.0" old_y="200.0" type="right_before_left" weight_num="4.0" weight_sum="0.0" x="275.054586065" x_displacement_sum="-124.945413935" y="-8.242356559" y_displacement_sum="-208.242356559" />
    <node avg_slowdown_ratio="0.0" id="node_04x03" junction="True" old_x="400.0" old_y="300.0" type="right_before_left" weight_num="4.0" weight_sum="0.0" x="237.143886022" x_displacement_sum="-162.856113978" y="94.382233044" y_displacement_sum="-205.617766956" />
    <node avg_slowdown_ratio="0.0" id="node_04x04" junction="True" old_x="400.0" old_y="400.0" type="right_before_left" weight_num="4.0" weight_sum="0.0" x="166.611065287" x_displacement_sum="-233.388934713" y="166.611065287" y_displacement_sum="-233.388934713" />
    <node avg_slowdown_ratio="0.0" id="node_04x05" junction="True" old_x="400.0" old_y="500.0" type="right_before_left" weight_num="4.0" weight_sum="0.0" x="95.106059307" x_displacement_sum="-304.893940693" y="240.699463711" y_displacement_sum="-259.300536289" />
    <node avg_slowdown_ratio="0.0" id="node_04x06" junction="True" old_x="400.0" old_y="600.0" type="right_before_left" weight_num="4.0" weight_sum="0.0" x="39.146305141" x_displacement_sum="-360.853694859" y="355.752849675" y_displacement_sum="-244.247150325" />
    <node avg_slowdown_ratio="0.0" id="node_04x07" junction="True" old_x="400.0" old_y="700.0" type="right_before_left" weight_num="4.0" weight_sum="0.0" x="2.039522956" x_displacement_sum="-397.960477044" y="502.782215946" y_displacement_sum="-197.217784054" />
    <node avg_slowdown_ratio="0.0" id="node_04x08" junction="True" old_x="400.0" old_y="800.0" type="right_before_left" weight_num="4.0" weight_sum="0.0" x="-14.436908016" x_displacement_sum="-414.436908016" y="669.492991951" y_displacement_sum="-130.507008049" />
    <node avg_slowdown_ratio="0.0" id="node_04x09" junction="True" old_x="400.0" old_y="900.0" type="right_before_left" weight_num="4.0" weight_sum="0.0" x="-24.254835699" x_displacement_sum="-424.254835699" y="837.69551874" y_displacement_sum="-62.3044812599" />
    <node avg_slowdown_ratio="0.0" id="node_04x10" junction="True" old_x="400.0" old_y="1000.0" type="right_before_left" weight_num="4.0" weight_sum="0.0" x="-36.3979419" x_displacement_sum="-436.3979419" y="1000.0" y_displacement_sum="-4.38635794353e-11" />
    <node avg_slowdown_ratio="0.0" id="node_04x11" junction="True" old_x="400.0" old_y="1100.0" type="right_before_left" weight_num="4.0" weight_sum="0.0" x="-24.254835699" x_displacement_sum="-424.254835699" y="1162.30448126" y_displacement_sum="62.3044812609" />
    <node avg_slowdown_ratio="0.0" id="node_04x12" junction="True" old_x="400.0" old_y="1200.0" type="right_before_left" weight_num="4.0" weight_sum="0.0" x="-14.436908016" x_displacement_sum="-414.436908016" y="1330.50700805" y_displacement_sum="130.507008049" />
    <node avg_slowdown_ratio="0.0" id="node_04x13" junction="True" old_x="400.0" old_y="1300.0" type="right_before_left" weight_num="4.0" weight_sum="0.0" x="2.039522956" x_displacement_sum="-397.960477044" y="1497.21778405" y_displacement_sum="197.217784054" />
    <node avg_slowdown_ratio="0.0" id="node_04x14" junction="True" old_x="400.0" old_y="1400.0" type="right_before_left" weight_num="4.0" weight_sum="0.0" x="39.146305141" x_displacement_sum="-360.853694859" y="1644.24715032" y_displacement_sum="244.247150325" />
    <node avg_slowdown_ratio="0.0" id="node_04x15" junction="True" old_x="400.0" old_y="1500.0" type="right_before_left" weight_num="4.0" weight_sum="0.0" x="95.106059307" x_displacement_sum="-304.893940693" y="1759.30053629" y_displacement_sum="259.300536289" />
    <node avg_slowdown_ratio="0.0" id="node_04x16" junction="True" old_x="400.0" old_y="1600.0" type="right_before_left" weight_num="4.0" weight_sum="0.0" x="166.611065287" x_displacement_sum="-233.388934713" y="1833.38893471" y_displacement_sum="233.388934713" />
    <node avg_slowdown_ratio="0.0" id="node_04x17" junction="True" old_x="400.0" old_y="1700.0" type="right_before_left" weight_num="4.0" weight_sum="0.0" x="237.143886022" x_displacement_sum="-162.856113978" y="1905.61776696" y_displacement_sum="205.617766956" />
    <node avg_slowdown_ratio="0.0" id="node_04x18" junction="True" old_x="400.0" old_y="1800.0" type="right_before_left" weight_num="4.0" weight_sum="0.0" x="275.054586065" x_displacement_sum="-124.945413935" y="2008.24235656" y_displacement_sum="208.242356559" />
    <node avg_slowdown_ratio="0.0" id="node_04x19" junction="True" old_x="400.0" old_y="1900.0" type="right_before_left" weight_num="4.0" weight_sum="0.0" x="301.391107973" x_displacement_sum="-98.608892027" y="2097.21778405" y_displacement_sum="197.217784054" />
    <node avg_slowdown_ratio="0.0" id="node_04x20" junction="True" old_x="400.0" old_y="2000.0" type="right_before_left" weight_num="3.0" weight_sum="0.0" x="328.637799222" x_displacement_sum="-71.3622007777" y="2166.51180182" y_displacement_sum="166.511801815" />
    <node avg_slowdown_ratio="0.0" id="node_05x00" junction="True" old_x="500.0" old_y="0.0" type="right_before_left" weight_num="3.0" weight_sum="0.0" x="445.707098504" x_displacement_sum="-54.2929014959" y="-190.025155236" y_displacement_sum="-190.025155236" />
    <node avg_slowdown_ratio="0.0" id="node_05x01" junction="True" old_x="500.0" old_y="100.0" type="right_before_left" weight_num="4.0" weight_sum="0.0" x="426.582238327" x_displacement_sum="-73.4177616726" y="-120.253285018" y_displacement_sum="-220.253285018" />
    <node avg_slowdown_ratio="0.0" id="node_05x02" junction="True" old_x="500.0" old_y="200.0" type="right_before_left" weight_num="4.0" weight_sum="0.0" x="363.04312805" x_displacement_sum="-136.95687195" y="-58.508872137" y_displacement_sum="-258.508872137" />