<?xml version='1.0' encoding='UTF-8'?>
<nodes xmlns:xsi="http://www.w3.org/2001/XMLSchema-instance" version="0.27" xsi:noNamespaceSchemaLocation="http://sumo.dlr.de/xsd/nodes_file.xsd">
    <location convBoundary="2208.92,522.44,21219.92,15402.46" netOffset="-224973.31,-2700122.99" origBoundary="54.286966,24.391306,54.609531,24.591038" projParameter="+proj=utm +zone=40 +ellps=WGS84 +datum=WGS84 +units=m +no_defs" />

    <node avg_slowdown_ratio="0.0675067506751" id="-170405842-AddedOffRampNode" type="priority" weight_num="1.0" weight_sum="0.0675067506751" x="17782.67" y="3111.06" />
    <node avg_slowdown_ratio="0.421166306695" id="-227103756#2-AddedOffRampNode" type="priority" weight_num="1.0" weight_sum="0.421166306695" x="12253.07" y="10273.92" />
    <node avg_slowdown_ratio="0.958603311735" id="-243197772#5-AddedOffRampNode" type="priority" weight_num="1.0" weight_sum="0.958603311735" x="11357.37" y="11167.90" />
    <node avg_slowdown_ratio="0.492478956954" id="1003388266" tl="GS_1003388266" type="traffic_light" weight_num="2.0" weight_sum="0.984957913908" x="9211.77" y="7843.76" />
    <node avg_slowdown_ratio="0.0965806838632" id="1003388268" type="priority" weight_num="1.0" weight_sum="0.0965806838632" x="10104.41" y="7647.38" />
    <node avg_slowdown_ratio="0.0431913617277" id="1003388284" type="priority" weight_num="1.0" weight_sum="0.0431913617277" x="9157.79" y="7847.26" />
    <node avg_slowdown_ratio="0.313706070667" id="1003388319" tl="GS_1003388319" type="traffic_light" weight_num="2.0" weight_sum="0.627412141334" x="10172.80" y="7642.66" />
    <node avg_slowdown_ratio="0.0389922015597" id="100596053#3-AddedOffRampNode" type="priority" weight_num="1.0" weight_sum="0.0389922015597" x="8269.74" y="11974.05" />
    <node avg_slowdown_ratio="0.478704259148" id="100596053#6-AddedOffRampNode" type="priority" weight_num="1.0" weight_sum="0.478704259148" x="8712.19" y="11723.58" />
    <node avg_slowdown_ratio="0.845230953809" id="100596086#4-AddedOnRampNode" type="priority" weight_num="1.0" weight_sum="0.845230953809" x="9990.37" y="10135.54" />
    <node avg_slowdown_ratio="0.134629229662" id="1024577672" type="priority" weight_num="1.0" weight_sum="0.134629229662" x="3380.32" y="9011.83" />
    <node avg_slowdown_ratio="0.0766738660905" id="1024577817" type="priority" weight_num="2.0" weight_sum="0.153347732181" x="3399.16" y="8987.87" />
    <node avg_slowdown_ratio="0.0503959683225" id="1024797232" type="priority" weight_num="1.0" weight_sum="0.0503959683225" x="3410.06" y="7794.91" />
    <node avg_slowdown_ratio="0.0689862027594" id="1024797388" type="priority" weight_num="1.0" weight_sum="0.0689862027594" x="2393.19" y="7618.78" />
    <node avg_slowdown_ratio="0.0" id="1024797617" type="unregulated" x="2340.72" y="8113.59" />
    <node avg_slowdown_ratio="0.145428365731" id="1024797763" type="unregulated" weight_num="1.0" weight_sum="0.145428365731" x="2343.00" y="8104.11" />
    <node avg_slowdown_ratio="0.0554355651548" id="1024798120" type="priority" weight_num="1.0" weight_sum="0.0554355651548" x="3175.71" y="7666.08" />
    <node avg_slowdown_ratio="0.452745274527" id="1026500732" type="priority" weight_num="1.0" weight_sum="0.452745274527" x="18942.91" y="3352.66" />
    <node avg_slowdown_ratio="0.275877587759" id="1026500754" type="priority" weight_num="2.0" weight_sum="0.551755175517" x="18917.19" y="3335.29" />
    <node avg_slowdown_ratio="0.52699460108" id="1026593915" type="priority" weight_num="2.0" weight_sum="1.05398920216" x="9857.99" y="11164.28" />
    <node avg_slowdown_ratio="0.399220155969" id="1026593918" type="priority" weight_num="2.0" weight_sum="0.798440311938" x="9834.30" y="11110.27" />
    <node avg_slowdown_ratio="0.233953209358" id="1026593919" type="priority" weight_num="1.0" weight_sum="0.233953209358" x="9841.70" y="11155.29" />
    <node avg_slowdown_ratio="0.0413917216557" id="1026593951" type="priority" weight_num="1.0" weight_sum="0.0413917216557" x="7382.02" y="11481.01" />
    <node avg_slowdown_ratio="0.123575284943" id="1026593953" type="priority" weight_num="1.0" weight_sum="0.123575284943" x="9908.90" y="11164.09" />
    <node avg_slowdown_ratio="0.32024523821" id="1026593958" type="priority" weight_num="2.0" weight_sum="0.640490476419" x="7387.84" y="11534.46" />
    <node avg_slowdown_ratio="0.304529374902" id="1026645559" type="priority" weight_num="2.0" weight_sum="0.609058749805" x="6784.82" y="10811.17" />
    <node avg_slowdown_ratio="0.264879349706" id="1026645578" type="priority" weight_num="2.0" weight_sum="0.529758699412" x="6458.59" y="9832.30" />
    <node avg_slowdown_ratio="0.109791216703" id="1026645624" type="priority" weight_num="2.0" weight_sum="0.219582433406" x="3603.38" y="8780.94" />
    <node avg_slowdown_ratio="0.231821454284" id="1026645661" type="priority" weight_num="3.0" weight_sum="0.695464362852" x="5878.41" y="9286.71" />
    <node avg_slowdown_ratio="0.605111591075" id="1026646011" type="priority" weight_num="2.0" weight_sum="1.21022318215" x="6501.97" y="10505.15" />
    <node avg_slowdown_ratio="0.358891288697" id="1026646185" type="priority" weight_num="2.0" weight_sum="0.717782577394" x="6741.29" y="10825.40" />
    <node avg_slowdown_ratio="0.773938084953" id="1026646224" type="priority" weight_num="1.0" weight_sum="0.773938084953" x="6511.70" y="9888.98" />
    <node avg_slowdown_ratio="0.450683945284" id="1026646233" type="priority" weight_num="1.0" weight_sum="0.450683945284" x="6526.47" y="10477.36" />
    <node avg_slowdown_ratio="0.291216702664" id="1026646302" type="priority" weight_num="1.0" weight_sum="0.291216702664" x="6526.09" y="9836.65" />
    <node avg_slowdown_ratio="0.245140388769" id="1026646387" type="priority" weight_num="2.0" weight_sum="0.490280777538" x="6530.55" y="10505.31" />
    <node avg_slowdown_ratio="0.263138948884" id="1026646515" type="priority" weight_num="2.0" weight_sum="0.526277897768" x="6472.01" y="9882.01" />
    <node avg_slowdown_ratio="0.0857828434313" id="1026714663" type="priority" weight_num="1.0" weight_sum="0.0857828434313" x="7909.94" y="11683.14" />
    <node avg_slowdown_ratio="0.0890821835635" id="1026714666" type="priority" weight_num="2.0" weight_sum="0.178164367127" x="8043.99" y="12103.01" />
    <node avg_slowdown_ratio="0.0467906418716" id="1026714706" type="priority" weight_num="1.0" weight_sum="0.0467906418716" x="7750.20" y="11798.79" />
    <node avg_slowdown_ratio="0.132273545291" id="1026714719" type="priority" weight_num="2.0" weight_sum="0.264547090582" x="7161.81" y="11401.52" />
    <node avg_slowdown_ratio="0.0515896820636" id="1026714738" type="priority" weight_num="1.0" weight_sum="0.0515896820636" x="8071.20" y="11955.22" />
    <node avg_slowdown_ratio="0.0558055805581" id="1026714743" type="priority" weight_num="1.0" weight_sum="0.0558055805581" x="7788.68" y="11887.96" />
    <node avg_slowdown_ratio="0.204259148171" id="1026714899" type="priority" weight_num="2.0" weight_sum="0.408518296341" x="7831.48" y="11855.75" />
    <node avg_slowdown_ratio="0.154427645788" id="1026714967" type="priority" weight_num="2.0" weight_sum="0.308855291576" x="8140.86" y="11840.71" />
    <node avg_slowdown_ratio="0.0509898020396" id="1026714971" type="priority" weight_num="1.0" weight_sum="0.0509898020396" x="7588.17" y="11682.58" />
    <node avg_slowdown_ratio="0.285809144866" id="1026714978" type="priority" weight_num="2.0" weight_sum="0.571618289733" x="7918.79" y="11699.88" />
    <node avg_slowdown_ratio="0.57695769577" id="1027680400" type="priority" weight_num="1.0" weight_sum="0.57695769577" x="7121.61" y="11093.32" />
    <node avg_slowdown_ratio="0.432943294329" id="1027680402" type="priority" weight_num="1.0" weight_sum="0.432943294329" x="7084.51" y="11097.62" />
    <node avg_slowdown_ratio="0.695628472135" id="1027680403" type="priority" weight_num="2.0" weight_sum="1.39125694427" x="7119.69" y="11085.07" />
    <node avg_slowdown_ratio="0.320014398848" id="1027680414" type="priority" weight_num="2.0" weight_sum="0.640028797696" x="7133.02" y="11109.05" />
    <node avg_slowdown_ratio="0.444644464446" id="1027680417" type="priority" weight_num="1.0" weight_sum="0.444644464446" x="7100.36" y="11074.75" />
    <node avg_slowdown_ratio="0.462871287129" id="1027680423" type="priority" weight_num="2.0" weight_sum="0.925742574258" x="7094.10" y="11076.73" />
    <node avg_slowdown_ratio="0.662354302385" id="1027680429" type="priority" weight_num="2.0" weight_sum="1.32470860477" x="7112.67" y="11109.21" />
    <node avg_slowdown_ratio="0.346314221053" id="1027695860" type="priority" weight_num="3.0" weight_sum="1.03894266316" x="7049.96" y="11070.72" />
    <node avg_slowdown_ratio="0.0911817636473" id="1027695868" type="priority" weight_num="1.0" weight_sum="0.0911817636473" x="7209.46" y="10444.47" />
    <node avg_slowdown_ratio="0.471872187218" id="1027695976" type="priority" weight_num="2.0" weight_sum="0.943744374437" x="7169.47" y="10447.88" />
    <node avg_slowdown_ratio="0.241180705543" id="1032819771" type="priority" weight_num="3.0" weight_sum="0.72354211663" x="11668.64" y="8653.84" />
    <node avg_slowdown_ratio="0.258070303131" id="1038949780" type="priority" weight_num="2.0" weight_sum="0.516140606262" x="6913.69" y="7258.78" />
    <node avg_slowdown_ratio="0.75593952484" id="1038949782" type="priority" weight_num="2.0" weight_sum="1.51187904968" x="7080.37" y="7295.18" />
    <node avg_slowdown_ratio="0.391558456986" id="1038949784" type="priority" weight_num="2.0" weight_sum="0.783116913971" x="6982.34" y="7242.60" />
    <node avg_slowdown_ratio="0.857943746025" id="1038949792" type="priority" weight_num="2.0" weight_sum="1.71588749205" x="7075.49" y="7328.53" />
    <node avg_slowdown_ratio="0.20233667038" id="1038949794" type="priority" weight_num="2.0" weight_sum="0.404673340759" x="6900.13" y="7186.60" />
    <node avg_slowdown_ratio="0.944811037792" id="1038949799" type="priority" weight_num="1.0" weight_sum="0.944811037792" x="6898.50" y="7248.34" />
    <node avg_slowdown_ratio="0.929567956795" id="1038949802" type="priority" weight_num="2.0" weight_sum="1.85913591359" x="6966.82" y="7170.70" />
    <node avg_slowdown_ratio="0.932813437313" id="1038949805" type="priority" weight_num="1.0" weight_sum="0.932813437313" x="6978.46" y="7262.04" />
    <node avg_slowdown_ratio="0.990099009901" id="1038949808" type="priority" weight_num="1.0" weight_sum="0.990099009901" x="6976.99" y="7183.10" />
    <node avg_slowdown_ratio="0.695860827834" id="1038949809" type="priority" weight_num="1.0" weight_sum="0.695860827834" x="7047.07" y="7302.18" />
    <node avg_slowdown_ratio="0.799640071986" id="1038949815" type="priority" weight_num="1.0" weight_sum="0.799640071986" x="6915.29" y="7178.55" />
    <node avg_slowdown_ratio="0.0821835632873" id="1038949816" type="priority" weight_num="1.0" weight_sum="0.0821835632873" x="6681.34" y="6890.90" />
    <node avg_slowdown_ratio="0.654151243185" id="1038949826" type="priority" weight_num="2.0" weight_sum="1.30830248637" x="6799.24" y="7066.02" />
    <node avg_slowdown_ratio="0.155507559395" id="1039020501" type="priority" weight_num="3.0" weight_sum="0.466522678186" x="6293.03" y="6302.95" />
    <node avg_slowdown_ratio="0.171706263499" id="1039020601" type="priority" weight_num="2.0" weight_sum="0.343412526998" x="6010.84" y="6319.47" />
    <node avg_slowdown_ratio="0.238300935925" id="1039154231" type="priority" weight_num="2.0" weight_sum="0.47660187185" x="6328.24" y="6639.99" />
    <node avg_slowdown_ratio="0.118310535157" id="1039154404" type="priority" weight_num="3.0" weight_sum="0.354931605471" x="5836.26" y="6401.01" />
    <node avg_slowdown_ratio="0.374850012" id="1039154426" type="priority" weight_num="3.0" weight_sum="1.124550036" x="6299.97" y="6804.43" />
    <node avg_slowdown_ratio="0.0" id="1039154598" type="priority" weight_num="1.0" weight_sum="0.0" x="6172.61" y="6832.47" />
    <node avg_slowdown_ratio="0.0" id="1039154670" type="unregulated" x="6684.85" y="6076.76" />
    <node avg_slowdown_ratio="0.251979841612" id="1039154728" type="priority" weight_num="2.0" weight_sum="0.503959683225" x="6010.30" y="6369.89" />
    <node avg_slowdown_ratio="0.233021358291" id="1039154826" type="priority" weight_num="3.0" weight_sum="0.699064074874" x="6070.72" y="6520.86" />
    <node avg_slowdown_ratio="0.0" id="1039154880" type="priority" weight_num="1.0" weight_sum="0.0" x="5896.72" y="6452.21" />
    <node avg_slowdown_ratio="0.053275737941" id="1039155143" type="unregulated" weight_num="1.0" weight_sum="0.053275737941" x="6676.48" y="6086.16" />
    <node avg_slowdown_ratio="0.331653467723" id="1039155187" type="priority" weight_num="3.0" weight_sum="0.994960403168" x="6018.08" y="6403.34" />
    <node avg_slowdown_ratio="0.0" id="1039155231" type="priority" weight_num="1.0" weight_sum="0.0" x="5857.05" y="6423.11" />
    <node avg_slowdown_ratio="0.388768898487" id="1039155444" type="priority" weight_num="3.0" weight_sum="1.16630669546" x="5913.68" y="6401.69" />
    <node avg_slowdown_ratio="0.236621070314" id="1039155450" type="priority" weight_num="3.0" weight_sum="0.709863210943" x="5997.62" y="6425.60" />
    <node avg_slowdown_ratio="0.0503959683225" id="1039169474" type="priority" weight_num="1.0" weight_sum="0.0503959683225" x="5048.97" y="6399.88" />
    <node avg_slowdown_ratio="0.280297576194" id="1039169596" type="priority" weight_num="3.0" weight_sum="0.840892728581" x="4872.66" y="6581.57" />
    <node avg_slowdown_ratio="0.123830093593" id="1039169698" type="priority" weight_num="1.0" weight_sum="0.123830093593" x="4943.82" y="6615.80" />
    <node avg_slowdown_ratio="0.040316774658" id="1039194280" type="priority" weight_num="1.0" weight_sum="0.040316774658" x="6415.35" y="6161.02" />
    <node avg_slowdown_ratio="0.125989920806" id="1039211522" type="priority" weight_num="3.0" weight_sum="0.377969762419" x="6262.60" y="6337.83" />
    <node avg_slowdown_ratio="0.352771778257" id="1039211547" type="priority" weight_num="3.0" weight_sum="1.05831533477" x="6313.41" y="6279.31" />
    <node avg_slowdown_ratio="0.0590352771778" id="1039211548" type="priority" weight_num="1.0" weight_sum="0.0590352771778" x="6383.84" y="6468.26" />
    <node avg_slowdown_ratio="0.102951763859" id="1039211649" type="priority" weight_num="1.0" weight_sum="0.102951763859" x="6518.16" y="6450.33" />
    <node avg_slowdown_ratio="0.0467962562995" id="1039227951" type="priority" weight_num="1.0" weight_sum="0.0467962562995" x="6048.47" y="6941.43" />
    <node avg_slowdown_ratio="0.971647164716" id="1040646594" type="priority" weight_num="1.0" weight_sum="0.971647164716" x="7904.62" y="6055.78" />
    <node avg_slowdown_ratio="0.552555795535" id="1040646620" type="priority" weight_num="2.0" weight_sum="1.10511159107" x="7674.67" y="6309.04" />
    <node avg_slowdown_ratio="0.42812574994" id="1040646625" type="priority" weight_num="3.0" weight_sum="1.28437724982" x="7721.19" y="6238.22" />
    <node avg_slowdown_ratio="0.0785842831434" id="1040646642" type="priority" weight_num="1.0" weight_sum="0.0785842831434" x="7243.69" y="6201.12" />
    <node avg_slowdown_ratio="0.0689862027594" id="1040646655" type="priority" weight_num="1.0" weight_sum="0.0689862027594" x="7738.20" y="5691.62" />
    <node avg_slowdown_ratio="0.380129589633" id="1040646657" type="priority" weight_num="2.0" weight_sum="0.760259179266" x="7905.80" y="6038.14" />
    <node avg_slowdown_ratio="0.966246624662" id="1040646663" type="priority" weight_num="1.0" weight_sum="0.966246624662" x="7811.24" y="6167.52" />
    <node avg_slowdown_ratio="0.0479904019196" id="1040646738" type="priority" weight_num="1.0" weight_sum="0.0479904019196" x="7170.14" y="6260.69" />
    <node avg_slowdown_ratio="0.278091906371" id="1040646759" type="priority" weight_num="2.0" weight_sum="0.556183812742" x="7671.60" y="5694.32" />
    <node avg_slowdown_ratio="0.513558915287" id="1040646768" type="priority" weight_num="3.0" weight_sum="1.54067674586" x="7614.06" y="5789.93" />
    <node avg_slowdown_ratio="0.695954113715" id="1040646783" type="priority" weight_num="2.0" weight_sum="1.39190822743" x="7592.34" y="5790.36" />
    <node avg_slowdown_ratio="0.0741540676746" id="1040646784" type="priority" weight_num="1.0" weight_sum="0.0741540676746" x="7611.77" y="6368.11" />
    <node avg_slowdown_ratio="0.959945994599" id="1040646801" type="priority" weight_num="1.0" weight_sum="0.959945994599" x="7677.94" y="6324.30" />
    <node avg_slowdown_ratio="0.222702183825" id="1040646807" type="priority" weight_num="3.0" weight_sum="0.668106551476" x="7623.49" y="5797.95" />
    <node avg_slowdown_ratio="0.481092550389" id="1040646839" type="priority" weight_num="2.0" weight_sum="0.962185100777" x="7609.19" y="5770.71" />
    <node avg_slowdown_ratio="0.112177564487" id="1040646857" type="priority" weight_num="1.0" weight_sum="0.112177564487" x="7190.35" y="6194.45" />
    <node avg_slowdown_ratio="0.336933045357" id="1040646914" type="priority" weight_num="3.0" weight_sum="1.01079913607" x="7739.43" y="5896.59" />
    <node avg_slowdown_ratio="0.287531242626" id="1040646970" type="priority" weight_num="2.0" weight_sum="0.575062485252" x="7982.81" y="5897.60" />
    <node avg_slowdown_ratio="0.963096309631" id="1040646978" type="priority" weight_num="1.0" weight_sum="0.963096309631" x="7728.82" y="6266.14" />
    <node avg_slowdown_ratio="0.31846259011" id="1040647012" type="priority" weight_num="2.0" weight_sum="0.636925180221" x="7169.32" y="6199.17" />
    <node avg_slowdown_ratio="0.42788576914" id="1040647017" type="priority" weight_num="3.0" weight_sum="1.28365730742" x="7802.70" y="6140.94" />
    <node avg_slowdown_ratio="0.444204463643" id="1040647019" type="priority" weight_num="3.0" weight_sum="1.33261339093" x="7666.64" y="6303.34" />
    <node avg_slowdown_ratio="0.67881204967" id="1040647040" type="priority" weight_num="2.0" weight_sum="1.35762409934" x="7694.79" y="6305.49" />
    <node avg_slowdown_ratio="0.971647164716" id="1040647108" type="priority" weight_num="1.0" weight_sum="0.971647164716" x="7992.70" y="5956.18" />
    <node avg_slowdown_ratio="0.381209503239" id="1040647116" type="priority" weight_num="2.0" weight_sum="0.762419006479" x="7729.01" y="6244.74" />
    <node avg_slowdown_ratio="0.279062594322" id="1040647120" type="priority" weight_num="2.0" weight_sum="0.558125188644" x="7188.98" y="6267.52" />
    <node avg_slowdown_ratio="0.290537122099" id="1040647164" type="priority" weight_num="2.0" weight_sum="0.581074244197" x="7249.82" y="6244.33" />
    <node avg_slowdown_ratio="0.699510879815" id="1040647183" type="priority" weight_num="2.0" weight_sum="1.39902175963" x="7749.19" y="6241.77" />
    <node avg_slowdown_ratio="0.0" id="1040647196" type="priority" weight_num="1.0" weight_sum="0.0" x="7920.40" y="5966.91" />
    <node avg_slowdown_ratio="0.531677465805" id="1040647198" type="priority" weight_num="2.0" weight_sum="1.06335493161" x="7810.22" y="6147.33" />
    <node avg_slowdown_ratio="0.410367170627" id="1040647267" type="priority" weight_num="3.0" weight_sum="1.23110151188" x="7778.24" y="5929.61" />
    <node avg_slowdown_ratio="0.449783265669" id="1040647286" type="priority" weight_num="2.0" weight_sum="0.899566531338" x="7234.92" y="6184.84" />
    <node avg_slowdown_ratio="0.0533893221356" id="1040647299" type="priority" weight_num="1.0" weight_sum="0.0533893221356" x="7257.09" y="6277.24" />
    <node avg_slowdown_ratio="0.662569118685" id="1040647305" type="priority" weight_num="2.0" weight_sum="1.32513823737" x="7827.69" y="6147.84" />
    <node avg_slowdown_ratio="0.236557224192" id="1040661947" type="priority" weight_num="2.0" weight_sum="0.473114448385" x="8004.37" y="7222.16" />
    <node avg_slowdown_ratio="0.272618190545" id="1040661982" type="priority" weight_num="3.0" weight_sum="0.817854571634" x="7952.17" y="7151.83" />
    <node avg_slowdown_ratio="0.10007199424" id="1040661983" type="priority" weight_num="1.0" weight_sum="0.10007199424" x="7900.60" y="7214.52" />
    <node avg_slowdown_ratio="0.336693064553" id="1040662003" type="priority" weight_num="3.0" weight_sum="1.01007919366" x="7994.38" y="7187.97" />
    <node avg_slowdown_ratio="0.897420515897" id="1052165754" type="priority" weight_num="1.0" weight_sum="0.897420515897" x="7207.53" y="7454.43" />
    <node avg_slowdown_ratio="0.35173784325" id="1052165761" tl="GS_1052165761" type="traffic_light" weight_num="2.0" weight_sum="0.7034756865" x="9241.47" y="7917.35" />
    <node avg_slowdown_ratio="0.700059988002" id="1052165762" type="priority" weight_num="1.0" weight_sum="0.700059988002" x="6308.89" y="7892.75" />
    <node avg_slowdown_ratio="0.21406287497" id="1052165764" type="priority" weight_num="3.0" weight_sum="0.64218862491" x="8434.97" y="7000.28" />
    <node avg_slowdown_ratio="0.0" id="1052165777" type="priority" weight_num="1.0" weight_sum="0.0" x="8780.80" y="6625.91" />
    <node avg_slowdown_ratio="0.493160547157" id="1052165782" type="priority" weight_num="3.0" weight_sum="1.47948164147" x="8762.64" y="6647.42" />
    <node avg_slowdown_ratio="0.966406718656" id="1052165801" type="priority" weight_num="1.0" weight_sum="0.966406718656" x="8000.24" y="8205.35" />
    <node avg_slowdown_ratio="0.245020398368" id="1052165805" type="priority" weight_num="3.0" weight_sum="0.735061195104" x="6163.48" y="8165.88" />
    <node avg_slowdown_ratio="0.103779244151" id="1052165808" type="priority" weight_num="1.0" weight_sum="0.103779244151" x="7275.55" y="7459.67" />
    <node avg_slowdown_ratio="0.327360765471" id="1052165811" type="priority" weight_num="2.0" weight_sum="0.654721530941" x="6319.38" y="7957.22" />
    <node avg_slowdown_ratio="0.250650499963" id="1052165819" type="priority" weight_num="2.0" weight_sum="0.501300999926" x="5754.25" y="8645.54" />
    <node avg_slowdown_ratio="0.955608878224" id="1052165830" type="priority" weight_num="1.0" weight_sum="0.955608878224" x="7515.93" y="7748.49" />
    <node avg_slowdown_ratio="0.264095345078" id="1052165833" type="priority" weight_num="2.0" weight_sum="0.528190690156" x="8559.48" y="6596.25" />
    <node avg_slowdown_ratio="0.57437526896" id="1052165835" type="priority" weight_num="2.0" weight_sum="1.14875053792" x="7527.33" y="7816.37" />
    <node avg_slowdown_ratio="0.124175164967" id="1052165853" type="priority" weight_num="1.0" weight_sum="0.124175164967" x="6371.75" y="7894.19" />
    <node avg_slowdown_ratio="0.299912069791" id="1052165876" type="priority" weight_num="2.0" weight_sum="0.599824139583" x="7217.52" y="7529.16" />
    <node avg_slowdown_ratio="0.0" id="1052165892" type="priority" weight_num="1.0" weight_sum="0.0" x="9185.27" y="7806.75" />
    <node avg_slowdown_ratio="0.473902087832" id="1052165943" type="priority" weight_num="4.0" weight_sum="1.89560835133" x="9300.31" y="6523.37" />
    <node avg_slowdown_ratio="0.820635872825" id="1052165944" type="priority" weight_num="1.0" weight_sum="0.820635872825" x="7205.51" y="7520.59" />
    <node avg_slowdown_ratio="0.0" id="1052165945" type="priority" weight_num="1.0" weight_sum="0.0" x="8659.84" y="6562.17" />
    <node avg_slowdown_ratio="0.259899208063" id="1052165950" type="priority" weight_num="3.0" weight_sum="0.77969762419" x="9338.42" y="6530.45" />
    <node avg_slowdown_ratio="0.579484103179" id="1052165953" type="priority" weight_num="1.0" weight_sum="0.579484103179" x="7507.76" y="7811.14" />
    <node avg_slowdown_ratio="0.0302375809935" id="1052165957" type="priority" weight_num="1.0" weight_sum="0.0302375809935" x="8367.19" y="6942.82" />
    <node avg_slowdown_ratio="0.288456923446" id="1052165958" type="priority" weight_num="3.0" weight_sum="0.865370770338" x="8736.39" y="6678.51" />
    <node avg_slowdown_ratio="0.132949364051" id="1052165961" type="priority" weight_num="3.0" weight_sum="0.398848092153" x="8753.35" y="6760.96" />
    <node avg_slowdown_ratio="0.104979004199" id="1052165967" type="priority" weight_num="1.0" weight_sum="0.104979004199" x="7575.95" y="7760.32" />
    <node avg_slowdown_ratio="0.139908807296" id="1052165974" type="priority" weight_num="3.0" weight_sum="0.419726421887" x="8583.02" y="6616.25" />
    <node avg_slowdown_ratio="0.80446840425" id="1052165981" type="priority" weight_num="2.0" weight_sum="1.6089368085" x="7270.52" y="7514.61" />
    <node avg_slowdown_ratio="0.23278137749" id="1052165984" type="priority" weight_num="3.0" weight_sum="0.69834413247" x="8433.53" y="7072.36" />
    <node avg_slowdown_ratio="0.980203959208" id="1052165987" type="priority" weight_num="1.0" weight_sum="0.980203959208" x="9224.68" y="7935.87" />
    <node avg_slowdown_ratio="0.75498559154" id="1052165993" type="priority" weight_num="2.0" weight_sum="1.50997118308" x="6367.57" y="7877.49" />
    <node avg_slowdown_ratio="0.280792716344" id="1052165997" type="priority" weight_num="2.0" weight_sum="0.561585432688" x="7569.16" y="7739.89" />
    <node avg_slowdown_ratio="0.25408131695" id="1052166004" type="priority" weight_num="2.0" weight_sum="0.5081626339" x="6371.42" y="7946.20" />
    <node avg_slowdown_ratio="0.263347330534" id="1052166008" type="priority" weight_num="1.0" weight_sum="0.263347330534" x="6301.82" y="7956.69" />
    <node avg_slowdown_ratio="0.237580993521" id="1052166014" type="priority" weight_num="3.0" weight_sum="0.712742980562" x="5991.97" y="8291.10" />
    <node avg_slowdown_ratio="0.0389922015597" id="1052166021" type="priority" weight_num="1.0" weight_sum="0.0389922015597" x="9231.81" y="7851.40" />
    <node avg_slowdown_ratio="0.30337177389" id="1052166042" type="priority" weight_num="2.0" weight_sum="0.60674354778" x="6300.37" y="7910.59" />
    <node avg_slowdown_ratio="0.282217422606" id="1052166058" type="priority" weight_num="3.0" weight_sum="0.846652267818" x="8691.91" y="6640.13" />
    <node avg_slowdown_ratio="0.601079784043" id="1052166065" type="priority" weight_num="1.0" weight_sum="0.601079784043" x="5702.19" y="8659.36" />
    <node avg_slowdown_ratio="0.504352477235" id="1052166069" tl="GS_1052166069" type="traffic_light" weight_num="2.0" weight_sum="1.00870495447" x="9157.08" y="7939.01" />
    <node avg_slowdown_ratio="0.0" id="1052166093" type="priority" weight_num="1.0" weight_sum="0.0" x="8306.01" y="7017.05" />
    <node avg_slowdown_ratio="0.610077984403" id="1052166097" type="priority" weight_num="1.0" weight_sum="0.610077984403" x="6363.01" y="7958.73" />
    <node avg_slowdown_ratio="0.283417326614" id="1052166103" type="priority" weight_num="3.0" weight_sum="0.850251979842" x="8374.50" y="7074.39" />
    <node avg_slowdown_ratio="0.24397069281" id="1052166130" type="priority" weight_num="2.0" weight_sum="0.48794138562" x="7508.84" y="7761.82" />
    <node avg_slowdown_ratio="0.55770632552" id="1052166149" type="priority" weight_num="2.0" weight_sum="1.11541265104" x="7203.72" y="7476.52" />
    <node avg_slowdown_ratio="0.237820974322" id="1052166152" type="priority" weight_num="3.0" weight_sum="0.713462922966" x="6231.97" y="8222.95" />
    <node avg_slowdown_ratio="0.346720259908" id="1052166177" type="priority" weight_num="2.0" weight_sum="0.693440519817" x="8042.37" y="8202.65" />
    <node avg_slowdown_ratio="0.436285097193" id="1052166190" type="priority" weight_num="3.0" weight_sum="1.30885529158" x="8384.21" y="6957.25" />
    <node avg_slowdown_ratio="0.908818236353" id="1052166195" type="priority" weight_num="1.0" weight_sum="0.908818236353" x="7259.51" y="7526.60" />
    <node avg_slowdown_ratio="0.0" id="1052166208" type="priority" weight_num="1.0" weight_sum="0.0" x="8739.21" y="6585.56" />
    <node avg_slowdown_ratio="0.0443911217756" id="1052166211" type="priority" weight_num="1.0" weight_sum="0.0443911217756" x="9135.43" y="7931.03" />
    <node avg_slowdown_ratio="0.269798416127" id="1052166235" type="priority" weight_num="4.0" weight_sum="1.07919366451" x="8717.00" y="6609.57" />
    <node avg_slowdown_ratio="0.23698149659" id="1052166254" type="priority" weight_num="2.0" weight_sum="0.47396299318" x="7262.54" y="7452.91" />
    <node avg_slowdown_ratio="0.39716822654" id="1052166273" type="priority" weight_num="3.0" weight_sum="1.19150467962" x="8325.50" y="7033.38" />
    <node avg_slowdown_ratio="0.412205679815" id="1052166282" tl="GS_1052166282" type="traffic_light" weight_num="2.0" weight_sum="0.824411359629" x="9130.99" y="7857.62" />
    <node avg_slowdown_ratio="0.157487401008" id="1061694756" type="priority" weight_num="4.0" weight_sum="0.629949604031" x="7315.54" y="10277.93" />
    <node avg_slowdown_ratio="0.756086191773" id="1061694758" type="priority" weight_num="3.0" weight_sum="2.26825857532" x="7123.69" y="10384.51" />
    <node avg_slowdown_ratio="0.0561555075594" id="1061694793" type="priority" weight_num="1.0" weight_sum="0.0561555075594" x="7469.46" y="10601.46" />
    <node avg_slowdown_ratio="0.164367126575" id="1061694825" type="priority" weight_num="1.0" weight_sum="0.164367126575" x="7793.61" y="10859.97" />
    <node avg_slowdown_ratio="0.354031677465" id="1061694842" type="priority" weight_num="4.0" weight_sum="1.41612670986" x="7555.16" y="10371.96" />
    <node avg_slowdown_ratio="0.331173506119" id="1061694849" type="priority" weight_num="3.0" weight_sum="0.993520518358" x="7516.93" y="10423.52" />
    <node avg_slowdown_ratio="0.389668826495" id="1061694869" type="priority" weight_num="4.0" weight_sum="1.55867530598" x="7640.16" y="10433.72" />
    <node avg_slowdown_ratio="0.23278137749" id="1061694877" type="priority" weight_num="3.0" weight_sum="0.69834413247" x="7308.94" y="10415.26" />
    <node avg_slowdown_ratio="0.219942404607" id="1061694878" type="priority" weight_num="4.0" weight_sum="0.879769618429" x="7496.94" y="10450.49" />