<?xml version="1.0" encoding="UTF-8"?>

<!-- generated on 02/05/17 02:11:48 by SUMO netconvert Version 0.27.1
<?xml version="1.0" encoding="UTF-8"?>

<configuration xmlns:xsi="http://www.w3.org/2001/XMLSchema-instance" xsi:noNamespaceSchemaLocation="http://sumo.dlr.de/xsd/netconvertConfiguration.xsd">

    <input>
        <node-files value="C:\Users\zs633\capstone\10_spherical\test_random\7_displaced\linear.nod.xml"/>
        <edge-files value="C:\Users\zs633\capstone\10_spherical\test_random\7_displaced\linear.edg.xml"/>
        <connection-files value="C:\Users\zs633\capstone\10_spherical\test_random\4_plain\test.con.xml"/>
        <tllogic-files value="C:\Users\zs633\capstone\10_spherical\test_random\4_plain\test.tll.xml"/>
    </input>

    <output>
        <output-file value="C:\Users\zs633\capstone\10_spherical\test_random\9_output_net\linear.net.xml"/>
    </output>

    <processing>
        <ignore-errors value="true"/>
        <ignore-errors.edge-type value="true"/>
    </processing>

    <report>
        <verbose value="true"/>
        <xml-validation value="never"/>
        <no-warnings value="true"/>
    </report>

</configuration>
-->

<net version="0.27" xmlns:xsi="http://www.w3.org/2001/XMLSchema-instance" xsi:noNamespaceSchemaLocation="http://sumo.dlr.de/xsd/net_file.xsd">

    <location netOffset="223.79,262.91" convBoundary="0.00,0.00,2543.66,2523.25" origBoundary="-223.79,-262.91,2319.87,2260.34" projParameter="!"/>

    <edge id=":node_00x00_0" function="internal">
        <lane id=":node_00x00_0_0" index="0" disallow="tram rail_urban rail rail_electric ship" speed="13.89" length="2.09" shape="156.63,188.59 156.09,188.75 155.70,189.03 155.43,189.45 155.30,189.98"/>
    </edge>
    <edge id=":node_00x00_1" function="internal">
        <lane id=":node_00x00_1_0" index="0" disallow="tram rail_urban rail rail_electric ship" speed="13.89" length="6.40" shape="152.02,189.61 152.43,187.97 153.24,186.70 154.46,185.82 156.09,185.33"/>
    </edge>
    <edge id=":node_00x01_0" function="internal">
        <lane id=":node_00x01_0_0" index="0" disallow="tram rail_urban rail rail_electric ship" speed="13.89" length="5.66" shape="139.25,364.90 137.54,365.13 136.27,365.70 135.43,366.60 135.02,367.85"/>
    </edge>
    <edge id=":node_00x01_1" function="internal">
        <lane id=":node_00x01_1_0" index="0" disallow="tram rail_urban rail rail_electric ship" speed="13.89" length="11.07" shape="139.25,364.90 136.17,364.55 134.09,363.28 133.00,361.10 132.91,358.01"/>
    </edge>
    <edge id=":node_00x01_2" function="internal">
        <lane id=":node_00x01_2_0" index="0" disallow="tram rail_urban rail rail_electric ship" speed="13.89" length="5.18" shape="136.19,358.38 136.23,359.83 136.74,360.85 137.71,361.44 139.15,361.61"/>
    </edge>
    <edge id=":node_00x01_3" function="internal">
        <lane id=":node_00x01_3_0" index="0" disallow="tram rail_urban rail rail_electric ship" speed="13.89" length="9.54" shape="136.19,358.38 135.02,367.85"/>
    </edge>
    <edge id=":node_00x01_4" function="internal">
        <lane id=":node_00x01_4_0" index="0" disallow="tram rail_urban rail rail_electric ship" speed="13.89" length="9.47" shape="131.75,367.41 132.91,358.01"/>
    </edge>
    <edge id=":node_00x01_5" function="internal">
        <lane id=":node_00x01_5_0" index="0" disallow="tram rail_urban rail rail_electric ship" speed="13.89" length="10.37" shape="131.75,367.41 132.50,364.94 133.98,363.15 136.20,362.04 139.15,361.61"/>
    </edge>
    <edge id=":node_00x02_0" function="internal">
        <lane id=":node_00x02_0_0" index="0" disallow="tram rail_urban rail rail_electric ship" speed="13.89" length="5.47" shape="126.30,460.41 124.69,460.58 123.50,461.14 122.75,462.07 122.43,463.37"/>
    </edge>
    <edge id=":node_00x02_1" function="internal">
        <lane id=":node_00x02_1_0" index="0" disallow="tram rail_urban rail rail_electric ship" speed="13.89" length="10.99" shape="126.30,460.41 123.26,459.95 121.23,458.62 120.20,456.43 120.17,453.36"/>
    </edge>
    <edge id=":node_00x02_2" function="internal">
        <lane id=":node_00x02_2_0" index="0" disallow="tram rail_urban rail rail_electric ship" speed="13.89" length="5.16" shape="123.44,453.80 123.45,455.24 123.94,456.27 124.89,456.89 126.32,457.11"/>
    </edge>
    <edge id=":node_00x02_3" function="internal">
        <lane id=":node_00x02_3_0" index="0" disallow="tram rail_urban rail rail_electric ship" speed="13.89" length="9.63" shape="123.44,453.80 122.43,463.37"/>
    </edge>
    <edge id=":node_00x02_4" function="internal">
        <lane id=":node_00x02_4_0" index="0" disallow="tram rail_urban rail rail_electric ship" speed="13.89" length="9.83" shape="119.13,463.13 120.17,453.36"/>
    </edge>
    <edge id=":node_00x02_5" function="internal">
        <lane id=":node_00x02_5_0" index="0" disallow="tram rail_urban rail rail_electric ship" speed="13.89" length="10.53" shape="119.13,463.13 119.75,460.48 121.15,458.59 123.34,457.47 126.32,457.11"/>
    </edge>
    <edge id=":node_00x03_0" function="internal">
        <lane id=":node_00x03_0_0" index="0" disallow="tram rail_urban rail rail_electric ship" speed="13.89" length="5.94" shape="120.17,548.52 118.35,548.88 116.99,549.53 116.10,550.46 115.66,551.67"/>
    </edge>
    <edge id=":node_00x03_1" function="internal">
        <lane id=":node_00x03_1_0" index="0" disallow="tram rail_urban rail rail_electric ship" speed="13.89" length="11.29" shape="120.17,548.52 116.99,548.41 114.80,547.27 113.59,545.12 113.37,541.95"/>
    </edge>
    <edge id=":node_00x03_2" function="internal">
        <lane id=":node_00x03_2_0" index="0" disallow="tram rail_urban rail rail_electric ship" speed="13.89" length="5.23" shape="116.66,542.19 116.76,543.66 117.32,544.66 118.34,545.18 119.81,545.23"/>
    </edge>
    <edge id=":node_00x03_3" function="internal">
        <lane id=":node_00x03_3_0" index="0" disallow="tram rail_urban rail rail_electric ship" speed="13.89" length="9.53" shape="116.66,542.19 115.66,551.67"/>
    </edge>
    <edge id=":node_00x03_4" function="internal">
        <lane id=":node_00x03_4_0" index="0" disallow="tram rail_urban rail rail_electric ship" speed="13.89" length="9.28" shape="112.40,551.19 113.37,541.95"/>
    </edge>
    <edge id=":node_00x03_5" function="internal">
        <lane id=":node_00x03_5_0" index="0" disallow="tram rail_urban rail rail_electric ship" speed="13.89" length="10.31" shape="112.40,551.19 113.15,548.85 114.64,547.08 116.86,545.88 119.81,545.23"/>
    </edge>
    <edge id=":node_00x04_0" function="internal">
        <lane id=":node_00x04_0_0" index="0" disallow="tram rail_urban rail rail_electric ship" speed="13.89" length="6.19" shape="104.33,657.28 102.39,657.65 100.94,658.30 99.98,659.22 99.52,660.43"/>
    </edge>
    <edge id=":node_00x04_1" function="internal">
        <lane id=":node_00x04_1_0" index="0" disallow="tram rail_urban rail rail_electric ship" speed="13.89" length="11.69" shape="104.33,657.28 101.01,657.15 98.80,655.95 97.70,653.69 97.71,650.36"/>
    </edge>
    <edge id=":node_00x04_2" function="internal">
        <lane id=":node_00x04_2_0" index="0" disallow="tram rail_urban rail rail_electric ship" speed="13.89" length="5.33" shape="100.98,650.84 100.97,652.36 101.47,653.39 102.48,653.94 103.99,654.00"/>
    </edge>
    <edge id=":node_00x04_3" function="internal">
        <lane id=":node_00x04_3_0" index="0" disallow="tram rail_urban rail rail_electric ship" speed="13.89" length="9.70" shape="100.98,650.84 99.52,660.43"/>
    </edge>
    <edge id=":node_00x04_4" function="internal">
        <lane id=":node_00x04_4_0" index="0" disallow="tram rail_urban rail rail_electric ship" speed="13.89" length="9.67" shape="96.26,659.92 97.71,650.36"/>
    </edge>
    <edge id=":node_00x04_5" function="internal">
        <lane id=":node_00x04_5_0" index="0" disallow="tram rail_urban rail rail_electric ship" speed="13.89" length="10.55" shape="96.26,659.92 97.05,657.60 98.60,655.84 100.92,654.64 103.99,654.00"/>
    </edge>
    <edge id=":node_00x05_0" function="internal">
        <lane id=":node_00x05_0_0" index="0" disallow="tram rail_urban rail rail_electric ship" speed="13.89" length="6.93" shape="89.20,757.15 86.97,757.78 85.30,758.59 84.21,759.58 83.68,760.74"/>
    </edge>
    <edge id=":node_00x05_1" function="internal">
        <lane id=":node_00x05_1_0" index="0" disallow="tram rail_urban rail rail_electric ship" speed="13.89" length="12.45" shape="89.20,757.15 85.59,757.41 83.20,756.38 82.03,754.06 82.09,750.43"/>
    </edge>
    <edge id=":node_00x05_2" function="internal">
        <lane id=":node_00x05_2_0" index="0" disallow="tram rail_urban rail rail_electric ship" speed="13.89" length="5.52" shape="85.35,750.95 85.33,752.55 85.84,753.58 86.90,754.04 88.50,753.92"/>
    </edge>
    <edge id=":node_00x05_3" function="internal">
        <lane id=":node_00x05_3_0" index="0" disallow="tram rail_urban rail rail_electric ship" speed="13.89" length="9.94" shape="85.35,750.95 83.68,760.74"/>
    </edge>
    <edge id=":node_00x05_4" function="internal">
        <lane id=":node_00x05_4_0" index="0" disallow="tram rail_urban rail rail_electric ship" speed="13.89" length="9.81" shape="80.44,760.11 82.09,750.43"/>
    </edge>
    <edge id=":node_00x05_5" function="internal">
        <lane id=":node_00x05_5_0" index="0" disallow="tram rail_urban rail rail_electric ship" speed="13.89" length="10.76" shape="80.44,760.11 81.28,757.98 82.91,756.24 85.31,754.89 88.50,753.92"/>
    </edge>
    <edge id=":node_00x06_0" function="internal">
        <lane id=":node_00x06_0_0" index="0" disallow="tram rail_urban rail rail_electric ship" speed="13.89" length="7.12" shape="68.79,863.21 66.50,863.96 64.84,864.88 63.82,865.97 63.44,867.23"/>
    </edge>
    <edge id=":node_00x06_1" function="internal">
        <lane id=":node_00x06_1_0" index="0" disallow="tram rail_urban rail rail_electric ship" speed="13.89" length="12.98" shape="68.79,863.21 64.99,863.64 62.52,862.65 61.40,860.24 61.61,856.42"/>
    </edge>
    <edge id=":node_00x06_2" function="internal">
        <lane id=":node_00x06_2_0" index="0" disallow="tram rail_urban rail rail_electric ship" speed="13.89" length="5.66" shape="64.85,857.05 64.76,858.72 65.25,859.77 66.32,860.20 67.98,860.01"/>
    </edge>
    <edge id=":node_00x06_3" function="internal">
        <lane id=":node_00x06_3_0" index="0" disallow="tram rail_urban rail rail_electric ship" speed="13.89" length="10.28" shape="64.85,857.05 63.44,867.23"/>
    </edge>
    <edge id=":node_00x06_4" function="internal">
        <lane id=":node_00x06_4_0" index="0" disallow="tram rail_urban rail rail_electric ship" speed="13.89" length="10.79" shape="60.14,867.09 60.33,864.00 60.60,861.72 61.01,859.45 61.61,856.42"/>
    </edge>
    <edge id=":node_00x06_5" function="internal">
        <lane id=":node_00x06_5_0" index="0" disallow="tram rail_urban rail rail_electric ship" speed="13.89" length="11.34" shape="60.14,867.09 60.72,864.72 62.21,862.75 64.63,861.18 67.98,860.01"/>
    </edge>
    <edge id=":node_00x07_0" function="internal">
        <lane id=":node_00x07_0_0" index="0" disallow="tram rail_urban rail rail_electric ship" speed="13.89" length="5.45" shape="63.25,956.40 61.66,956.67 60.50,957.28 59.76,958.23 59.46,959.52"/>
    </edge>
    <edge id=":node_00x07_1" function="internal">
        <lane id=":node_00x07_1_0" index="0" disallow="tram rail_urban rail rail_electric ship" speed="13.89" length="10.83" shape="63.25,956.40 60.25,956.14 58.15,954.96 56.95,952.88 56.65,949.89"/>
    </edge>
    <edge id=":node_00x07_2" function="internal">
        <lane id=":node_00x07_2_0" index="0" disallow="tram rail_urban rail rail_electric ship" speed="13.89" length="5.12" shape="59.94,950.03 60.09,951.44 60.66,952.43 61.65,952.98 63.07,953.11"/>
    </edge>
    <edge id=":node_00x07_3" function="internal">
        <lane id=":node_00x07_3_0" index="0" disallow="tram rail_urban rail rail_electric ship" speed="13.89" length="9.51" shape="59.94,950.03 59.46,959.52"/>
    </edge>
    <edge id=":node_00x07_4" function="internal">
        <lane id=":node_00x07_4_0" index="0" disallow="tram rail_urban rail rail_electric ship" speed="13.89" length="9.44" shape="56.17,959.32 56.65,949.89"/>
    </edge>
    <edge id=":node_00x07_5" function="internal">
        <lane id=":node_00x07_5_0" index="0" disallow="tram rail_urban rail rail_electric ship" speed="13.89" length="10.33" shape="56.17,959.32 56.73,956.74 58.07,954.84 60.18,953.63 63.07,953.11"/>
    </edge>
    <edge id=":node_00x08_0" function="internal">
        <lane id=":node_00x08_0_0" index="0" disallow="tram rail_urban rail rail_electric ship" speed="13.89" length="7.92" shape="58.68,1059.04 56.24,1060.35 54.45,1061.62 53.32,1062.86 52.84,1064.05"/>
    </edge>
    <edge id=":node_00x08_1" function="internal">
        <lane id=":node_00x08_1_0" index="0" disallow="tram rail_urban rail rail_electric ship" speed="13.89" length="13.51" shape="58.68,1059.04 54.83,1060.29 52.17,1059.78 50.69,1057.51 50.40,1053.48"/>
    </edge>
    <edge id=":node_00x08_2" function="internal">
        <lane id=":node_00x08_2_0" index="0" disallow="tram rail_urban rail rail_electric ship" speed="13.89" length="5.80" shape="53.70,1053.68 53.82,1055.41 54.45,1056.38 55.60,1056.60 57.25,1056.07"/>
    </edge>
    <edge id=":node_00x08_3" function="internal">
        <lane id=":node_00x08_3_0" index="0" disallow="tram rail_urban rail rail_electric ship" speed="13.89" length="10.41" shape="53.70,1053.68 52.84,1064.05"/>
    </edge>
    <edge id=":node_00x08_4" function="internal">
        <lane id=":node_00x08_4_0" index="0" disallow="tram rail_urban rail rail_electric ship" speed="13.89" length="10.18" shape="49.56,1063.63 50.40,1053.48"/>
    </edge>
    <edge id=":node_00x08_5" function="internal">
        <lane id=":node_00x08_5_0" index="0" disallow="tram rail_urban rail rail_electric ship" speed="13.89" length="11.18" shape="49.56,1063.63 50.24,1061.61 51.75,1059.67 54.09,1057.83 57.25,1056.07"/>
    </edge>
    <edge id=":node_00x09_0" function="internal">
        <lane id=":node_00x09_0_0" index="0" disallow="tram rail_urban rail rail_electric ship" speed="13.89" length="5.27" shape="46.62,1157.51 41.36,1157.85"/>
    </edge>
    <edge id=":node_00x09_1" function="internal">
        <lane id=":node_00x09_1_0" index="0" disallow="tram rail_urban rail rail_electric ship" speed="13.89" length="15.05" shape="46.62,1157.51 42.35,1159.41 39.52,1159.13 38.11,1156.64 38.14,1151.97"/>
    </edge>
    <edge id=":node_00x09_2" function="internal">
        <lane id=":node_00x09_2_0" index="0" disallow="tram rail_urban rail rail_electric ship" speed="13.89" length="6.22" shape="41.41,1152.39 41.40,1154.33 41.98,1155.35 43.15,1155.47 44.92,1154.68"/>
    </edge>
    <edge id=":node_00x09_3" function="internal">
        <lane id=":node_00x09_3_0" index="0" disallow="tram rail_urban rail rail_electric ship" speed="13.89" length="5.52" shape="41.41,1152.39 41.39,1154.03 41.60,1155.17 41.70,1156.29 41.36,1157.85"/>
    </edge>
    <edge id=":node_00x09_4" function="internal">
        <lane id=":node_00x09_4_0" index="0" disallow="tram rail_urban rail rail_electric ship" speed="13.89" length="4.84" shape="38.25,1156.75 38.52,1155.38 38.38,1154.40 38.14,1153.40 38.14,1151.97"/>
    </edge>
    <edge id=":node_00x09_5" function="internal">
        <lane id=":node_00x09_5_0" index="0" disallow="tram rail_urban rail rail_electric ship" speed="13.89" length="7.49" shape="38.25,1156.75 39.36,1155.29 40.90,1155.16 42.78,1155.30 44.92,1154.68"/>
    </edge>
    <edge id=":node_00x10_0" function="internal">
        <lane id=":node_00x10_0_0" index="0" disallow="tram rail_urban rail rail_electric ship" speed="13.89" length="7.38" shape="16.08,1244.92 13.60,1245.49 11.80,1246.30 10.68,1247.33 10.23,1248.59"/>
    </edge>
    <edge id=":node_00x10_1" function="internal">
        <lane id=":node_00x10_1_0" index="0" disallow="tram rail_urban rail rail_electric ship" speed="13.89" length="13.46" shape="16.08,1244.92 12.05,1245.04 9.64,1243.80 8.86,1241.22 9.68,1237.27"/>
    </edge>
    <edge id=":node_00x10_2" function="internal">
        <lane id=":node_00x10_2_0" index="0" disallow="tram rail_urban rail rail_electric ship" speed="13.89" length="5.78" shape="12.79,1238.38 12.44,1240.07 12.78,1241.18 13.81,1241.71 15.54,1241.66"/>
    </edge>
    <edge id=":node_00x10_3" function="internal">
        <lane id=":node_00x10_3_0" index="0" disallow="tram rail_urban rail rail_electric ship" speed="13.89" length="10.59" shape="12.79,1238.38 11.74,1241.26 11.03,1243.38 10.56,1245.56 10.23,1248.59"/>
    </edge>
    <edge id=":node_00x10_4" function="internal">
        <lane id=":node_00x10_4_0" index="0" disallow="tram rail_urban rail rail_electric ship" speed="13.89" length="11.45" shape="6.94,1248.34 7.30,1245.17 7.83,1242.71 8.60,1240.29 9.68,1237.27"/>
    </edge>
    <edge id=":node_00x10_5" function="internal">
        <lane id=":node_00x10_5_0" index="0" disallow="tram rail_urban rail rail_electric ship" speed="13.89" length="11.77" shape="6.94,1248.34 7.63,1245.92 9.30,1244.01 11.93,1242.58 15.54,1241.66"/>
    </edge>
    <edge id=":node_00x11_0" function="internal">
        <lane id=":node_00x11_0_0" index="0" disallow="tram rail_urban rail rail_electric ship" speed="13.89" length="10.19" shape="-1.33,1365.58 -1.26,1355.40"/>
    </edge>
    <edge id=":node_00x11_1" function="internal">
        <lane id=":node_00x11_1_0" index="0" disallow="tram rail_urban rail rail_electric ship" speed="13.89" length="10.69" shape="-1.33,1365.58 -1.09,1362.67 0.05,1360.58 2.09,1359.30 5.04,1358.85"/>
    </edge>
    <edge id=":node_00x11_2" function="internal">
        <lane id=":node_00x11_2_0" index="0" disallow="tram rail_urban rail rail_electric ship" speed="13.89" length="5.18" shape="5.09,1362.15 3.64,1362.37 2.64,1362.98 2.08,1363.98 1.96,1365.37"/>
    </edge>
    <edge id=":node_00x11_3" function="internal">
        <lane id=":node_00x11_3_0" index="0" disallow="tram rail_urban rail rail_electric ship" speed="13.89" length="10.79" shape="5.09,1362.15 2.11,1361.76 0.07,1360.51 -1.06,1358.39 -1.26,1355.40"/>
    </edge>
    <edge id=":node_00x11_4" function="internal">
        <lane id=":node_00x11_4_0" index="0" disallow="tram rail_urban rail rail_electric ship" speed="13.89" length="5.11" shape="2.03,1355.65 2.13,1357.07 2.66,1358.07 3.63,1358.66 5.04,1358.85"/>
    </edge>
    <edge id=":node_00x11_5" function="internal">
        <lane id=":node_00x11_5_0" index="0" disallow="tram rail_urban rail rail_electric ship" speed="13.89" length="9.72" shape="2.03,1355.65 1.96,1365.37"/>
    </edge>
    <edge id=":node_00x12_0" function="internal">
        <lane id=":node_00x12_0_0" index="0" disallow="tram rail_urban rail rail_electric ship" speed="13.89" length="10.44" shape="6.73,1478.32 5.30,1467.97"/>
    </edge>
    <edge id=":node_00x12_1" function="internal">
        <lane id=":node_00x12_1_0" index="0" disallow="tram rail_urban rail rail_electric ship" speed="13.89" length="12.45" shape="6.73,1478.32 6.57,1474.70 7.67,1472.34 10.02,1471.25 13.64,1471.41"/>
    </edge>
    <edge id=":node_00x12_2" function="internal">
        <lane id=":node_00x12_2_0" index="0" disallow="tram rail_urban rail rail_electric ship" speed="13.89" length="5.52" shape="13.04,1474.65 11.43,1474.58 10.39,1475.07 9.90,1476.11 9.97,1477.72"/>
    </edge>
    <edge id=":node_00x12_3" function="internal">
        <lane id=":node_00x12_3_0" index="0" disallow="tram rail_urban rail rail_electric ship" speed="13.89" length="11.07" shape="13.04,1474.65 9.78,1473.72 7.41,1472.29 5.91,1470.38 5.30,1467.97"/>
    </edge>
    <edge id=":node_00x12_4" function="internal">
        <lane id=":node_00x12_4_0" index="0" disallow="tram rail_urban rail rail_electric ship" speed="13.89" length="6.69" shape="8.60,1467.76 8.98,1469.02 9.95,1470.04 11.50,1470.84 13.64,1471.41"/>
    </edge>
    <edge id=":node_00x12_5" function="internal">
        <lane id=":node_00x12_5_0" index="0" disallow="tram rail_urban rail rail_electric ship" speed="13.89" length="10.05" shape="8.60,1467.76 9.97,1477.72"/>
    </edge>
    <edge id=":node_00x13_0" function="internal">
        <lane id=":node_00x13_0_0" index="0" disallow="tram rail_urban rail rail_electric ship" speed="13.89" length="9.39" shape="22.68,1567.57 21.62,1558.24"/>
    </edge>
    <edge id=":node_00x13_1" function="internal">
        <lane id=":node_00x13_1_0" index="0" disallow="tram rail_urban rail rail_electric ship" speed="13.89" length="12.16" shape="22.68,1567.57 22.92,1564.07 24.25,1561.87 26.66,1560.97 30.14,1561.37"/>
    </edge>
    <edge id=":node_00x13_2" function="internal">
        <lane id=":node_00x13_2_0" index="0" disallow="tram rail_urban rail rail_electric ship" speed="13.89" length="5.45" shape="29.31,1564.56 27.75,1564.38 26.67,1564.79 26.08,1565.77 25.97,1567.34"/>
    </edge>
    <edge id=":node_00x13_3" function="internal">
        <lane id=":node_00x13_3_0" index="0" disallow="tram rail_urban rail rail_electric ship" speed="13.89" length="10.50" shape="29.31,1564.56 26.26,1563.50 23.97,1562.09 22.42,1560.34 21.62,1558.24"/>
    </edge>
    <edge id=":node_00x13_4" function="internal">
        <lane id=":node_00x13_4_0" index="0" disallow="tram rail_urban rail rail_electric ship" speed="13.89" length="6.78" shape="24.86,1557.64 25.37,1558.80 26.41,1559.81 28.01,1560.66 30.14,1561.37"/>
    </edge>
    <edge id=":node_00x13_5" function="internal">
        <lane id=":node_00x13_5_0" index="0" disallow="tram rail_urban rail rail_electric ship" speed="13.89" length="9.76" shape="24.86,1557.64 25.97,1567.34"/>
    </edge>
    <edge id=":node_00x14_0" function="internal">
        <lane id=":node_00x14_0_0" index="0" disallow="tram rail_urban rail rail_electric ship" speed="13.89" length="10.01" shape="30.64,1674.85 29.59,1664.89"/>
    </edge>
    <edge id=":node_00x14_1" function="internal">
        <lane id=":node_00x14_1_0" index="0" disallow="tram rail_urban rail rail_electric ship" speed="13.89" length="11.90" shape="30.64,1674.85 30.69,1671.44 31.85,1669.18 34.14,1668.08 37.55,1668.13"/>
    </edge>
    <edge id=":node_00x14_2" function="internal">
        <lane id=":node_00x14_2_0" index="0" disallow="tram rail_urban rail rail_electric ship" speed="13.89" length="5.38" shape="37.04,1671.39 35.50,1671.37 34.46,1671.87 33.93,1672.89 33.91,1674.43"/>
    </edge>
    <edge id=":node_00x14_3" function="internal">
        <lane id=":node_00x14_3_0" index="0" disallow="tram rail_urban rail rail_electric ship" speed="13.89" length="10.75" shape="37.04,1671.39 33.92,1670.57 31.65,1669.21 30.20,1667.32 29.59,1664.89"/>
    </edge>
    <edge id=":node_00x14_4" function="internal">
        <lane id=":node_00x14_4_0" index="0" disallow="tram rail_urban rail rail_electric ship" speed="13.89" length="6.28" shape="32.89,1664.66 33.25,1665.91 34.15,1666.91 35.58,1667.65 37.55,1668.13"/>
    </edge>
    <edge id=":node_00x14_5" function="internal">
        <lane id=":node_00x14_5_0" index="0" disallow="tram rail_urban rail rail_electric ship" speed="13.89" length="9.82" shape="32.89,1664.66 33.91,1674.43"/>
    </edge>
    <edge id=":node_00x15_0" function="internal">
        <lane id=":node_00x15_0_0" index="0" disallow="tram rail_urban rail rail_electric ship" speed="13.89" length="12.19" shape="46.95,1785.09 43.32,1773.45"/>
    </edge>
    <edge id=":node_00x15_1" function="internal">
        <lane id=":node_00x15_1_0" index="0" disallow="tram rail_urban rail rail_electric ship" speed="13.89" length="15.08" shape="46.95,1785.09 45.75,1780.56 46.49,1777.80 49.17,1776.82 53.79,1777.61"/>
    </edge>
    <edge id=":node_00x15_2" function="internal">
        <lane id=":node_00x15_2_0" index="0" disallow="tram rail_urban rail rail_electric ship" speed="13.89" length="6.23" shape="52.84,1780.77 50.93,1780.44 49.83,1780.85 49.52,1781.99 50.02,1783.86"/>
    </edge>
    <edge id=":node_00x15_3" function="internal">
        <lane id=":node_00x15_3_0" index="0" disallow="tram rail_urban rail rail_electric ship" speed="13.89" length="12.61" shape="52.84,1780.77 48.90,1779.31 46.00,1777.60 44.14,1775.65 43.32,1773.45"/>
    </edge>
    <edge id=":node_00x15_4" function="internal">
        <lane id=":node_00x15_4_0" index="0" disallow="tram rail_urban rail rail_electric ship" speed="13.89" length="8.85" shape="46.60,1773.03 47.17,1774.26 48.56,1775.43 50.76,1776.55 53.79,1777.61"/>
    </edge>
    <edge id=":node_00x15_5" function="internal">
        <lane id=":node_00x15_5_0" index="0" disallow="tram rail_urban rail rail_electric ship" speed="13.89" length="11.40" shape="46.60,1773.03 47.14,1776.16 47.85,1778.56 48.79,1780.91 50.02,1783.86"/>
    </edge>
    <edge id=":node_00x16_0" function="internal">
        <lane id=":node_00x16_0_0" index="0" disallow="tram rail_urban rail rail_electric ship" speed="13.89" length="8.95" shape="83.70,1881.31 81.96,1872.53"/>
    </edge>
    <edge id=":node_00x16_1" function="internal">
        <lane id=":node_00x16_1_0" index="0" disallow="tram rail_urban rail rail_electric ship" speed="13.89" length="12.66" shape="83.70,1881.31 83.80,1877.60 85.09,1875.32 87.57,1874.45 91.24,1875.01"/>
    </edge>
    <edge id=":node_00x16_2" function="internal">
        <lane id=":node_00x16_2_0" index="0" disallow="tram rail_urban rail rail_electric ship" speed="13.89" length="5.57" shape="90.30,1878.17 88.68,1877.93 87.59,1878.31 87.02,1879.31 86.98,1880.95"/>
    </edge>
    <edge id=":node_00x16_3" function="internal">
        <lane id=":node_00x16_3_0" index="0" disallow="tram rail_urban rail rail_electric ship" speed="13.89" length="10.37" shape="90.30,1878.17 87.19,1877.05 84.76,1875.74 83.02,1874.23 81.96,1872.53"/>
    </edge>
    <edge id=":node_00x16_4" function="internal">
        <lane id=":node_00x16_4_0" index="0" disallow="tram rail_urban rail rail_electric ship" speed="13.89" length="7.42" shape="85.02,1871.30 85.73,1872.33 87.00,1873.28 88.84,1874.18 91.24,1875.01"/>
    </edge>
    <edge id=":node_00x16_5" function="internal">
        <lane id=":node_00x16_5_0" index="0" disallow="tram rail_urban rail rail_electric ship" speed="13.89" length="9.90" shape="85.02,1871.30 86.02,1874.05 86.48,1876.00 86.70,1878.02 86.98,1880.95"/>
    </edge>
    <edge id=":node_00x17_0" function="internal">
        <lane id=":node_00x17_0_0" index="0" disallow="tram rail_urban rail rail_electric ship" speed="13.89" length="10.26" shape="94.72,1975.62 93.00,1965.51"/>
    </edge>
    <edge id=":node_00x17_1" function="internal">
        <lane id=":node_00x17_1_0" index="0" disallow="tram rail_urban rail rail_electric ship" speed="13.89" length="12.15" shape="94.72,1975.62 94.48,1972.13 95.49,1969.76 97.75,1968.54 101.25,1968.44"/>
    </edge>
    <edge id=":node_00x17_2" function="internal">
        <lane id=":node_00x17_2_0" index="0" disallow="tram rail_urban rail rail_electric ship" speed="13.89" length="5.44" shape="100.87,1971.72 99.30,1971.76 98.29,1972.31 97.84,1973.37 97.95,1974.94"/>
    </edge>
    <edge id=":node_00x17_3" function="internal">
        <lane id=":node_00x17_3_0" index="0" disallow="tram rail_urban rail rail_electric ship" speed="13.89" length="10.92" shape="100.87,1971.72 97.65,1971.02 95.26,1969.75 93.71,1967.91 93.00,1965.51"/>
    </edge>
    <edge id=":node_00x17_4" function="internal">
        <lane id=":node_00x17_4_0" index="0" disallow="tram rail_urban rail rail_electric ship" speed="13.89" length="6.44" shape="96.28,1965.15 96.70,1966.39 97.67,1967.35 99.19,1968.03 101.25,1968.44"/>
    </edge>
    <edge id=":node_00x17_5" function="internal">
        <lane id=":node_00x17_5_0" index="0" disallow="tram rail_urban rail rail_electric ship" speed="13.89" length="9.93" shape="96.28,1965.15 97.95,1974.94"/>
    </edge>
    <edge id=":node_00x18_0" function="internal">
        <lane id=":node_00x18_0_0" index="0" disallow="tram rail_urban rail rail_electric ship" speed="13.89" length="9.02" shape="116.15,2079.47 114.88,2070.54"/>
    </edge>
    <edge id=":node_00x18_1" function="internal">
        <lane id=":node_00x18_1_0" index="0" disallow="tram rail_urban rail rail_electric ship" speed="13.89" length="11.04" shape="116.15,2079.47 116.32,2076.39 117.45,2074.24 119.55,2073.01 122.63,2072.72"/>
    </edge>
    <edge id=":node_00x18_2" function="internal">
        <lane id=":node_00x18_2_0" index="0" disallow="tram rail_urban rail rail_electric ship" speed="13.89" length="5.17" shape="122.47,2076.01 121.03,2076.15 120.05,2076.73 119.52,2077.74 119.44,2079.18"/>
    </edge>
    <edge id=":node_00x18_3" function="internal">
        <lane id=":node_00x18_3_0" index="0" disallow="tram rail_urban rail rail_electric ship" speed="13.89" length="10.15" shape="122.47,2076.01 119.56,2075.56 117.33,2074.49 115.77,2072.82 114.88,2070.54"/>
    </edge>
    <edge id=":node_00x18_4" function="internal">
        <lane id=":node_00x18_4_0" index="0" disallow="tram rail_urban rail rail_electric ship" speed="13.89" length="5.78" shape="118.11,2069.86 118.60,2071.04 119.52,2071.91 120.86,2072.47 122.63,2072.72"/>
    </edge>
    <edge id=":node_00x18_5" function="internal">
        <lane id=":node_00x18_5_0" index="0" disallow="tram rail_urban rail rail_electric ship" speed="13.89" length="9.42" shape="118.11,2069.86 119.44,2079.18"/>
    </edge>
    <edge id=":node_00x19_0" function="internal">
        <lane id=":node_00x19_0_0" index="0" disallow="tram rail_urban rail rail_electric ship" speed="13.89" length="10.06" shape="125.51,2177.23 124.06,2167.28"/>
    </edge>
    <edge id=":node_00x19_1" function="internal">
        <lane id=":node_00x19_1_0" index="0" disallow="tram rail_urban rail rail_electric ship" speed="13.89" length="11.39" shape="125.51,2177.23 125.36,2174.02 126.33,2171.74 128.40,2170.38 131.59,2169.96"/>
    </edge>
    <edge id=":node_00x19_2" function="internal">