<?xml version='1.0' encoding='UTF-8'?>
<edges xmlns:xsi="http://www.w3.org/2001/XMLSchema-instance" version="0.27" xsi:noNamespaceSchemaLocation="http://sumo.dlr.de/xsd/edges_file.xsd">
    <edge disallow="tram rail_urban rail rail_electric ship" dump_speed="10.45" from="node_00x00" id="xedge_00x00" len="100.0" numLanes="1" priority="5" slowdown="3.44" slowdown_ratio="0.247660187185" speed="13.89" to="node_00x01" type="highway.undefined" />
    <edge disallow="tram rail_urban rail rail_electric ship" dump_speed="9.55" from="node_00x01" id="xedge_00x01" len="100.0" numLanes="1" priority="5" slowdown="4.34" slowdown_ratio="0.3124550036" speed="13.89" to="node_00x00" type="highway.undefined" />
    <edge disallow="tram rail_urban rail rail_electric ship" dump_speed="10.19" from="node_00x01" id="xedge_00x02" len="100.0" numLanes="1" priority="5" slowdown="3.7" slowdown_ratio="0.266378689705" speed="13.89" to="node_00x02" type="highway.undefined" />
    <edge disallow="tram rail_urban rail rail_electric ship" dump_speed="10.16" from="node_00x02" id="xedge_00x03" len="100.0" numLanes="1" priority="5" slowdown="3.73" slowdown_ratio="0.268538516919" speed="13.89" to="node_00x01" type="highway.undefined" />
    <edge disallow="tram rail_urban rail rail_electric ship" dump_speed="10.05" from="node_00x02" id="xedge_00x04" len="100.0" numLanes="1" priority="5" slowdown="3.84" slowdown_ratio="0.276457883369" speed="13.89" to="node_00x03" type="highway.undefined" />
    <edge disallow="tram rail_urban rail rail_electric ship" dump_speed="10.96" from="node_00x03" id="xedge_00x05" len="100.0" numLanes="1" priority="5" slowdown="2.93" slowdown_ratio="0.21094312455" speed="13.89" to="node_00x02" type="highway.undefined" />
    <edge disallow="tram rail_urban rail rail_electric ship" dump_speed="12.41" from="node_00x03" id="xedge_00x06" len="100.0" numLanes="1" priority="5" slowdown="1.48" slowdown_ratio="0.106551475882" speed="13.89" to="node_00x04" type="highway.undefined" />
    <edge disallow="tram rail_urban rail rail_electric ship" dump_speed="8.53" from="node_00x04" id="xedge_00x07" len="100.0" numLanes="1" priority="5" slowdown="5.36" slowdown_ratio="0.38588912887" speed="13.89" to="node_00x03" type="highway.undefined" />
    <edge disallow="tram rail_urban rail rail_electric ship" dump_speed="9.75" from="node_00x05" id="xedge_00x10" len="100.0" numLanes="1" priority="5" slowdown="4.14" slowdown_ratio="0.298056155508" speed="13.89" to="node_00x06" type="highway.undefined" />
    <edge disallow="tram rail_urban rail rail_electric ship" dump_speed="9.9" from="node_00x06" id="xedge_00x11" len="100.0" numLanes="1" priority="5" slowdown="3.99" slowdown_ratio="0.287257019438" speed="13.89" to="node_00x05" type="highway.undefined" />
    <edge disallow="tram rail_urban rail rail_electric ship" dump_speed="10.55" from="node_00x06" id="xedge_00x12" len="100.0" numLanes="1" priority="5" slowdown="3.34" slowdown_ratio="0.240460763139" speed="13.89" to="node_00x07" type="highway.undefined" />
    <edge disallow="tram rail_urban rail rail_electric ship" dump_speed="10.54" from="node_00x07" id="xedge_00x13" len="100.0" numLanes="1" priority="5" slowdown="3.35" slowdown_ratio="0.241180705544" speed="13.89" to="node_00x06" type="highway.undefined" />
    <edge disallow="tram rail_urban rail rail_electric ship" dump_speed="10.61" from="node_00x07" id="xedge_00x14" len="100.0" numLanes="1" priority="5" slowdown="3.28" slowdown_ratio="0.236141108711" speed="13.89" to="node_00x08" type="highway.undefined" />
    <edge disallow="tram rail_urban rail rail_electric ship" dump_speed="10.67" from="node_00x08" id="xedge_00x15" len="100.0" numLanes="1" priority="5" slowdown="3.22" slowdown_ratio="0.231821454284" speed="13.89" to="node_00x07" type="highway.undefined" />
    <edge disallow="tram rail_urban rail rail_electric ship" dump_speed="9.43" from="node_00x09" id="xedge_00x18" len="100.0" numLanes="1" priority="5" slowdown="4.46" slowdown_ratio="0.321094312455" speed="13.89" to="node_00x10" type="highway.undefined" />
    <edge disallow="tram rail_urban rail rail_electric ship" dump_speed="10.01" from="node_00x10" id="xedge_00x19" len="100.0" numLanes="1" priority="5" slowdown="3.88" slowdown_ratio="0.279337652988" speed="13.89" to="node_00x09" type="highway.undefined" />
    <edge disallow="tram rail_urban rail rail_electric ship" dump_speed="10.52" from="node_00x10" id="xedge_00x20" len="100.0" numLanes="1" priority="5" slowdown="3.37" slowdown_ratio="0.242620590353" speed="13.89" to="node_00x11" type="highway.undefined" />
    <edge disallow="tram rail_urban rail rail_electric ship" dump_speed="10.58" from="node_00x11" id="xedge_00x21" len="100.0" numLanes="1" priority="5" slowdown="3.31" slowdown_ratio="0.238300935925" speed="13.89" to="node_00x10" type="highway.undefined" />
    <edge disallow="tram rail_urban rail rail_electric ship" dump_speed="10.84" from="node_00x11" id="xedge_00x22" len="100.0" numLanes="1" priority="5" slowdown="3.05" slowdown_ratio="0.219582433405" speed="13.89" to="node_00x12" type="highway.undefined" />
    <edge disallow="tram rail_urban rail rail_electric ship" dump_speed="10.36" from="node_00x12" id="xedge_00x23" len="100.0" numLanes="1" priority="5" slowdown="3.53" slowdown_ratio="0.254139668826" speed="13.89" to="node_00x11" type="highway.undefined" />
    <edge disallow="tram rail_urban rail rail_electric ship" dump_speed="10.36" from="node_00x12" id="xedge_00x24" len="100.0" numLanes="1" priority="5" slowdown="3.53" slowdown_ratio="0.254139668826" speed="13.89" to="node_00x13" type="highway.undefined" />
    <edge disallow="tram rail_urban rail rail_electric ship" dump_speed="10.68" from="node_00x13" id="xedge_00x25" len="100.0" numLanes="1" priority="5" slowdown="3.21" slowdown_ratio="0.231101511879" speed="13.89" to="node_00x12" type="highway.undefined" />
    <edge disallow="tram rail_urban rail rail_electric ship" dump_speed="10.5" from="node_00x15" id="xedge_00x30" len="100.0" numLanes="1" priority="5" slowdown="3.39" slowdown_ratio="0.244060475162" speed="13.89" to="node_00x16" type="highway.undefined" />
    <edge disallow="tram rail_urban rail rail_electric ship" dump_speed="10.69" from="node_00x16" id="xedge_00x31" len="100.0" numLanes="1" priority="5" slowdown="3.2" slowdown_ratio="0.230381569474" speed="13.89" to="node_00x15" type="highway.undefined" />
    <edge disallow="tram rail_urban rail rail_electric ship" dump_speed="10.3" from="node_00x16" id="xedge_00x32" len="100.0" numLanes="1" priority="5" slowdown="3.59" slowdown_ratio="0.258459323254" speed="13.89" to="node_00x17" type="highway.undefined" />
    <edge disallow="tram rail_urban rail rail_electric ship" dump_speed="10.52" from="node_00x17" id="xedge_00x33" len="100.0" numLanes="1" priority="5" slowdown="3.37" slowdown_ratio="0.242620590353" speed="13.89" to="node_00x16" type="highway.undefined" />
    <edge disallow="tram rail_urban rail rail_electric ship" dump_speed="9.64" from="node_00x17" id="xedge_00x34" len="100.0" numLanes="1" priority="5" slowdown="4.25" slowdown_ratio="0.305975521958" speed="13.89" to="node_00x18" type="highway.undefined" />
    <edge disallow="tram rail_urban rail rail_electric ship" dump_speed="9.83" from="node_00x18" id="xedge_00x35" len="100.0" numLanes="1" priority="5" slowdown="4.06" slowdown_ratio="0.292296616271" speed="13.89" to="node_00x17" type="highway.undefined" />
    <edge disallow="tram rail_urban rail rail_electric ship" dump_speed="10.21" from="node_00x18" id="xedge_00x36" len="100.0" numLanes="1" priority="5" slowdown="3.68" slowdown_ratio="0.264938804896" speed="13.89" to="node_00x19" type="highway.undefined" />
    <edge disallow="tram rail_urban rail rail_electric ship" dump_speed="10.27" from="node_00x19" id="xedge_00x37" len="100.0" numLanes="1" priority="5" slowdown="3.62" slowdown_ratio="0.260619150468" speed="13.89" to="node_00x18" type="highway.undefined" />
    <edge disallow="tram rail_urban rail rail_electric ship" dump_speed="10.57" from="node_01x00" id="xedge_01x00" len="100.0" numLanes="1" priority="5" slowdown="3.32" slowdown_ratio="0.23902087833" speed="13.89" to="node_01x01" type="highway.undefined" />
    <edge disallow="tram rail_urban rail rail_electric ship" dump_speed="10.87" from="node_01x01" id="xedge_01x01" len="100.0" numLanes="1" priority="5" slowdown="3.02" slowdown_ratio="0.217422606192" speed="13.89" to="node_01x00" type="highway.undefined" />
    <edge disallow="tram rail_urban rail rail_electric ship" dump_speed="10.74" from="node_01x03" id="xedge_01x06" len="100.0" numLanes="1" priority="5" slowdown="3.15" slowdown_ratio="0.226781857451" speed="13.89" to="node_01x04" type="highway.undefined" />
    <edge disallow="tram rail_urban rail rail_electric ship" dump_speed="10.43" from="node_01x04" id="xedge_01x07" len="100.0" numLanes="1" priority="5" slowdown="3.46" slowdown_ratio="0.249100071994" speed="13.89" to="node_01x03" type="highway.undefined" />
    <edge disallow="tram rail_urban rail rail_electric ship" dump_speed="10.56" from="node_01x05" id="xedge_01x10" len="100.0" numLanes="1" priority="5" slowdown="3.33" slowdown_ratio="0.239740820734" speed="13.89" to="node_01x06" type="highway.undefined" />
    <edge disallow="tram rail_urban rail rail_electric ship" dump_speed="10.72" from="node_01x06" id="xedge_01x11" len="100.0" numLanes="1" priority="5" slowdown="3.17" slowdown_ratio="0.228221742261" speed="13.89" to="node_01x05" type="highway.undefined" />
    <edge disallow="tram rail_urban rail rail_electric ship" dump_speed="10.59" from="node_01x08" id="xedge_01x16" len="100.0" numLanes="1" priority="5" slowdown="3.3" slowdown_ratio="0.237580993521" speed="13.89" to="node_01x09" type="highway.undefined" />
    <edge disallow="tram rail_urban rail rail_electric ship" dump_speed="10.48" from="node_01x09" id="xedge_01x17" len="100.0" numLanes="1" priority="5" slowdown="3.41" slowdown_ratio="0.245500359971" speed="13.89" to="node_01x08" type="highway.undefined" />
    <edge disallow="tram rail_urban rail rail_electric ship" dump_speed="3.57" from="node_01x09" id="xedge_01x18" len="100.0" numLanes="1" priority="5" slowdown="10.32" slowdown_ratio="0.742980561555" speed="13.89" to="node_01x10" type="highway.undefined" />
    <edge disallow="tram rail_urban rail rail_electric ship" dump_speed="10.49" from="node_01x10" id="xedge_01x19" len="100.0" numLanes="1" priority="5" slowdown="3.4" slowdown_ratio="0.244780417567" speed="13.89" to="node_01x09" type="highway.undefined" />
    <edge disallow="tram rail_urban rail rail_electric ship" dump_speed="10.99" from="node_01x10" id="xedge_01x20" len="100.0" numLanes="1" priority="5" slowdown="2.9" slowdown_ratio="0.208783297336" speed="13.89" to="node_01x11" type="highway.undefined" />
    <edge disallow="tram rail_urban rail rail_electric ship" dump_speed="2.27" from="node_01x11" id="xedge_01x21" len="100.0" numLanes="1" priority="5" slowdown="11.62" slowdown_ratio="0.836573074154" speed="13.89" to="node_01x10" type="highway.undefined" />
    <edge disallow="tram rail_urban rail rail_electric ship" dump_speed="10.43" from="node_01x12" id="xedge_01x24" len="100.0" numLanes="1" priority="5" slowdown="3.46" slowdown_ratio="0.249100071994" speed="13.89" to="node_01x13" type="highway.undefined" />
    <edge disallow="tram rail_urban rail rail_electric ship" dump_speed="10.45" from="node_01x13" id="xedge_01x25" len="100.0" numLanes="1" priority="5" slowdown="3.44" slowdown_ratio="0.247660187185" speed="13.89" to="node_01x12" type="highway.undefined" />
    <edge disallow="tram rail_urban rail rail_electric ship" dump_speed="10.86" from="node_01x13" id="xedge_01x26" len="100.0" numLanes="1" priority="5" slowdown="3.03" slowdown_ratio="0.218142548596" speed="13.89" to="node_01x14" type="highway.undefined" />
    <edge disallow="tram rail_urban rail rail_electric ship" dump_speed="10.89" from="node_01x14" id="xedge_01x27" len="100.0" numLanes="1" priority="5" slowdown="3.0" slowdown_ratio="0.215982721382" speed="13.89" to="node_01x13" type="highway.undefined" />
    <edge disallow="tram rail_urban rail rail_electric ship" dump_speed="10.68" from="node_01x14" id="xedge_01x28" len="100.0" numLanes="1" priority="5" slowdown="3.21" slowdown_ratio="0.231101511879" speed="13.89" to="node_01x15" type="highway.undefined" />
    <edge disallow="tram rail_urban rail rail_electric ship" dump_speed="10.48" from="node_01x15" id="xedge_01x29" len="100.0" numLanes="1" priority="5" slowdown="3.41" slowdown_ratio="0.245500359971" speed="13.89" to="node_01x14" type="highway.undefined" />
    <edge disallow="tram rail_urban rail rail_electric ship" dump_speed="10.63" from="node_01x16" id="xedge_01x32" len="100.0" numLanes="1" priority="5" slowdown="3.26" slowdown_ratio="0.234701223902" speed="13.89" to="node_01x17" type="highway.undefined" />
    <edge disallow="tram rail_urban rail rail_electric ship" dump_speed="10.43" from="node_01x17" id="xedge_01x33" len="100.0" numLanes="1" priority="5" slowdown="3.46" slowdown_ratio="0.249100071994" speed="13.89" to="node_01x16" type="highway.undefined" />
    <edge disallow="tram rail_urban rail rail_electric ship" dump_speed="10.85" from="node_01x17" id="xedge_01x34" len="100.0" numLanes="1" priority="5" slowdown="3.04" slowdown_ratio="0.218862491001" speed="13.89" to="node_01x18" type="highway.undefined" />
    <edge disallow="tram rail_urban rail rail_electric ship" dump_speed="10.65" from="node_01x18" id="xedge_01x35" len="100.0" numLanes="1" priority="5" slowdown="3.24" slowdown_ratio="0.233261339093" speed="13.89" to="node_01x17" type="highway.undefined" />
    <edge disallow="tram rail_urban rail rail_electric ship" dump_speed="10.33" from="node_01x19" id="xedge_01x38" len="100.0" numLanes="1" priority="5" slowdown="3.56" slowdown_ratio="0.25629949604" speed="13.89" to="node_01x20" type="highway.undefined" />
    <edge disallow="tram rail_urban rail rail_electric ship" dump_speed="10.52" from="node_01x20" id="xedge_01x39" len="100.0" numLanes="1" priority="5" slowdown="3.37" slowdown_ratio="0.242620590353" speed="13.89" to="node_01x19" type="highway.undefined" />
    <edge disallow="tram rail_urban rail rail_electric ship" dump_speed="10.6" from="node_02x01" id="xedge_02x02" len="100.0" numLanes="1" priority="5" slowdown="3.29" slowdown_ratio="0.236861051116" speed="13.89" to="node_02x02" type="highway.undefined" />
    <edge disallow="tram rail_urban rail rail_electric ship" dump_speed="10.22" from="node_02x02" id="xedge_02x03" len="100.0" numLanes="1" priority="5" slowdown="3.67" slowdown_ratio="0.264218862491" speed="13.89" to="node_02x01" type="highway.undefined" />
    <edge disallow="tram rail_urban rail rail_electric ship" dump_speed="9.78" from="node_02x05" id="xedge_02x10" len="100.0" numLanes="1" priority="5" slowdown="4.11" slowdown_ratio="0.295896328294" speed="13.89" to="node_02x06" type="highway.undefined" />
    <edge disallow="tram rail_urban rail rail_electric ship" dump_speed="11.16" from="node_02x06" id="xedge_02x11" len="100.0" numLanes="1" priority="5" slowdown="2.73" slowdown_ratio="0.196544276458" speed="13.89" to="node_02x05" type="highway.undefined" />
    <edge disallow="tram rail_urban rail rail_electric ship" dump_speed="10.57" from="node_02x06" id="xedge_02x12" len="100.0" numLanes="1" priority="5" slowdown="3.32" slowdown_ratio="0.23902087833" speed="13.89" to="node_02x07" type="highway.undefined" />
    <edge disallow="tram rail_urban rail rail_electric ship" dump_speed="10.76" from="node_02x07" id="xedge_02x13" len="100.0" numLanes="1" priority="5" slowdown="3.13" slowdown_ratio="0.225341972642" speed="13.89" to="node_02x06" type="highway.undefined" />
    <edge disallow="tram rail_urban rail rail_electric ship" dump_speed="10.67" from="node_02x07" id="xedge_02x14" len="100.0" numLanes="1" priority="5" slowdown="3.22" slowdown_ratio="0.231821454284" speed="13.89" to="node_02x08" type="highway.undefined" />
    <edge disallow="tram rail_urban rail rail_electric ship" dump_speed="10.77" from="node_02x08" id="xedge_02x15" len="100.0" numLanes="1" priority="5" slowdown="3.12" slowdown_ratio="0.224622030238" speed="13.89" to="node_02x07" type="highway.undefined" />
    <edge disallow="tram rail_urban rail rail_electric ship" dump_speed="9.96" from="node_02x08" id="xedge_02x16" len="100.0" numLanes="1" priority="5" slowdown="3.93" slowdown_ratio="0.282937365011" speed="13.89" to="node_02x09" type="highway.undefined" />
    <edge disallow="tram rail_urban rail rail_electric ship" dump_speed="9.01" from="node_02x09" id="xedge_02x17" len="100.0" numLanes="1" priority="5" slowdown="4.88" slowdown_ratio="0.351331893449" speed="13.89" to="node_02x08" type="highway.undefined" />
    <edge disallow="tram rail_urban rail rail_electric ship" dump_speed="10.54" from="node_02x11" id="xedge_02x22" len="100.0" numLanes="1" priority="5" slowdown="3.35" slowdown_ratio="0.241180705544" speed="13.89" to="node_02x12" type="highway.undefined" />
    <edge disallow="tram rail_urban rail rail_electric ship" dump_speed="11.22" from="node_02x12" id="xedge_02x23" len="100.0" numLanes="1" priority="5" slowdown="2.67" slowdown_ratio="0.19222462203" speed="13.89" to="node_02x11" type="highway.undefined" />
    <edge disallow="tram rail_urban rail rail_electric ship" dump_speed="11.39" from="node_02x14" id="xedge_02x28" len="100.0" numLanes="1" priority="5" slowdown="2.5" slowdown_ratio="0.179985601152" speed="13.89" to="node_02x15" type="highway.undefined" />
    <edge disallow="tram rail_urban rail rail_electric ship" dump_speed="10.29" from="node_02x15" id="xedge_02x29" len="100.0" numLanes="1" priority="5" slowdown="3.6" slowdown_ratio="0.259179265659" speed="13.89" to="node_02x14" type="highway.undefined" />
    <edge disallow="tram rail_urban rail rail_electric ship" dump_speed="10.54" from="node_02x16" id="xedge_02x32" len="100.0" numLanes="1" priority="5" slowdown="3.35" slowdown_ratio="0.241180705544" speed="13.89" to="node_02x17" type="highway.undefined" />
    <edge disallow="tram rail_urban rail rail_electric ship" dump_speed="10.17" from="node_02x17" id="xedge_02x33" len="100.0" numLanes="1" priority="5" slowdown="3.72" slowdown_ratio="0.267818574514" speed="13.89" to="node_02x16" type="highway.undefined" />
    <edge disallow="tram rail_urban rail rail_electric ship" dump_speed="10.66" from="node_02x18" id="xedge_02x36" len="100.0" numLanes="1" priority="5" slowdown="3.23" slowdown_ratio="0.232541396688" speed="13.89" to="node_02x19" type="highway.undefined" />
    <edge disallow="tram rail_urban rail rail_electric ship" dump_speed="10.63" from="node_02x19" id="xedge_02x37" len="100.0" numLanes="1" priority="5" slowdown="3.26" slowdown_ratio="0.234701223902" speed="13.89" to="node_02x18" type="highway.undefined" />
    <edge disallow="tram rail_urban rail rail_electric ship" dump_speed="10.6" from="node_02x19" id="xedge_02x38" len="100.0" numLanes="1" priority="5" slowdown="3.29" slowdown_ratio="0.236861051116" speed="13.89" to="node_02x20" type="highway.undefined" />
    <edge disallow="tram rail_urban rail rail_electric ship" dump_speed="9.38" from="node_02x20" id="xedge_02x39" len="100.0" numLanes="1" priority="5" slowdown="4.51" slowdown_ratio="0.324694024478" speed="13.89" to="node_02x19" type="highway.undefined" />
    <edge disallow="tram rail_urban rail rail_electric ship" dump_speed="10.85" from="node_03x00" id="xedge_03x00" len="100.0" numLanes="1" priority="5" slowdown="3.04" slowdown_ratio="0.218862491001" speed="13.89" to="node_03x01" type="highway.undefined" />
    <edge disallow="tram rail_urban rail rail_electric ship" dump_speed="10.62" from="node_03x01" id="xedge_03x01" len="100.0" numLanes="1" priority="5" slowdown="3.27" slowdown_ratio="0.235421166307" speed="13.89" to="node_03x00" type="highway.undefined" />
    <edge disallow="tram rail_urban rail rail_electric ship" dump_speed="10.8" from="node_03x01" id="xedge_03x02" len="100.0" numLanes="1" priority="5" slowdown="3.09" slowdown_ratio="0.222462203024" speed="13.89" to="node_03x02" type="highway.undefined" />
    <edge disallow="tram rail_urban rail rail_electric ship" dump_speed="10.94" from="node_03x02" id="xedge_03x03" len="100.0" numLanes="1" priority="5" slowdown="2.95" slowdown_ratio="0.212383009359" speed="13.89" to="node_03x01" type="highway.undefined" />
    <edge disallow="tram rail_urban rail rail_electric ship" dump_speed="10.87" from="node_03x02" id="xedge_03x04" len="100.0" numLanes="1" priority="5" slowdown="3.02" slowdown_ratio="0.217422606192" speed="13.89" to="node_03x03" type="highway.undefined" />
    <edge disallow="tram rail_urban rail rail_electric ship" dump_speed="10.88" from="node_03x03" id="xedge_03x05" len="100.0" numLanes="1" priority="5" slowdown="3.01" slowdown_ratio="0.216702663787" speed="13.89" to="node_03x02" type="highway.undefined" />
    <edge disallow="tram rail_urban rail rail_electric ship" dump_speed="10.47" from="node_03x03" id="xedge_03x06" len="100.0" numLanes="1" priority="5" slowdown="3.42" slowdown_ratio="0.246220302376" speed="13.89" to="node_03x04" type="highway.undefined" />
    <edge disallow="tram rail_urban rail rail_electric ship" dump_speed="9.33" from="node_03x04" id="xedge_03x07" len="100.0" numLanes="1" priority="5" slowdown="4.56" slowdown_ratio="0.328293736501" speed="13.89" to="node_03x03" type="highway.undefined" />
    <edge disallow="tram rail_urban rail rail_electric ship" dump_speed="10.45" from="node_03x05" id="xedge_03x10" len="100.0" numLanes="1" priority="5" slowdown="3.44" slowdown_ratio="0.247660187185" speed="13.89" to="node_03x06" type="highway.undefined" />
    <edge disallow="tram rail_urban rail rail_electric ship" dump_speed="10.42" from="node_03x06" id="xedge_03x11" len="100.0" numLanes="1" priority="5" slowdown="3.47" slowdown_ratio="0.249820014399" speed="13.89" to="node_03x05" type="highway.undefined" />
    <edge disallow="tram rail_urban rail rail_electric ship" dump_speed="10.13" from="node_03x06" id="xedge_03x12" len="100.0" numLanes="1" priority="5" slowdown="3.76" slowdown_ratio="0.270698344132" speed="13.89" to="node_03x07" type="highway.undefined" />
    <edge disallow="tram rail_urban rail rail_electric ship" dump_speed="10.42" from="node_03x07" id="xedge_03x13" len="100.0" numLanes="1" priority="5" slowdown="3.47" slowdown_ratio="0.249820014399" speed="13.89" to="node_03x06" type="highway.undefined" />
    <edge disallow="tram rail_urban rail rail_electric ship" dump_speed="10.18" from="node_03x08" id="xedge_03x16" len="100.0" numLanes="1" priority="5" slowdown="3.71" slowdown_ratio="0.267098632109" speed="13.89" to="node_03x09" type="highway.undefined" />
    <edge disallow="tram rail_urban rail rail_electric ship" dump_speed="9.81" from="node_03x09" id="xedge_03x17" len="100.0" numLanes="1" priority="5" slowdown="4.08" slowdown_ratio="0.29373650108" speed="13.89" to="node_03x08" type="highway.undefined" />
    <edge disallow="tram rail_urban rail rail_electric ship" dump_speed="2.46" from="node_03x09" id="xedge_03x18" len="100.0" numLanes="1" priority="5" slowdown="11.43" slowdown_ratio="0.822894168467" speed="13.89" to="node_03x10" type="highway.undefined" />
    <edge disallow="tram rail_urban rail rail_electric ship" dump_speed="10.45" from="node_03x10" id="xedge_03x19" len="100.0" numLanes="1" priority="5" slowdown="3.44" slowdown_ratio="0.247660187185" speed="13.89" to="node_03x09" type="highway.undefined" />
    <edge disallow="tram rail_urban rail rail_electric ship" dump_speed="11.54" from="node_03x10" id="xedge_03x20" len="100.0" numLanes="1" priority="5" slowdown="2.35" slowdown_ratio="0.169186465083" speed="13.89" to="node_03x11" type="highway.undefined" />
    <edge disallow="tram rail_urban rail rail_electric ship" dump_speed="0.52" from="node_03x11" id="xedge_03x21" len="100.0" numLanes="1" priority="5" slowdown="13.37" slowdown_ratio="0.96256299496" speed="13.89" to="node_03x10" type="highway.undefined" />
    <edge disallow="tram rail_urban rail rail_electric ship" dump_speed="7.9" from="node_03x13" id="xedge_03x26" len="100.0" numLanes="1" priority="5" slowdown="5.99" slowdown_ratio="0.43124550036" speed="13.89" to="node_03x14" type="highway.undefined" />
    <edge disallow="tram rail_urban rail rail_electric ship" dump_speed="12.63" from="node_03x14" id="xedge_03x27" len="100.0" numLanes="1" priority="5" slowdown="1.26" slowdown_ratio="0.0907127429806" speed="13.89" to="node_03x13" type="highway.undefined" />
    <edge disallow="tram rail_urban rail rail_electric ship" dump_speed="10.89" from="node_03x14" id="xedge_03x28" len="100.0" numLanes="1" priority="5" slowdown="3.0" slowdown_ratio="0.215982721382" speed="13.89" to="node_03x15" type="highway.undefined" />
    <edge disallow="tram rail_urban rail rail_electric ship" dump_speed="10.74" from="node_03x15" id="xedge_03x29" len="100.0" numLanes="1" priority="5" slowdown="3.15" slowdown_ratio="0.226781857451" speed="13.89" to="node_03x14" type="highway.undefined" />
    <edge disallow="tram rail_urban rail rail_electric ship" dump_speed="9.87" from="node_03x15" id="xedge_03x30" len="100.0" numLanes="1" priority="5" slowdown="4.02" slowdown_ratio="0.289416846652" speed="13.89" to="node_03x16" type="highway.undefined" />
    <edge disallow="tram rail_urban rail rail_electric ship" dump_speed="10.95" from="node_03x16" id="xedge_03x31" len="100.0" numLanes="1" priority="5" slowdown="2.94" slowdown_ratio="0.211663066955" speed="13.89" to="node_03x15" type="highway.undefined" />
    <edge disallow="tram rail_urban rail rail_electric ship" dump_speed="10.41" from="node_03x17" id="xedge_03x34" len="100.0" numLanes="1" priority="5" slowdown="3.48" slowdown_ratio="0.250539956803" speed="13.89" to="node_03x18" type="highway.undefined" />
    <edge disallow="tram rail_urban rail rail_electric ship" dump_speed="10.93" from="node_03x18" id="xedge_03x35" len="100.0" numLanes="1" priority="5" slowdown="2.96" slowdown_ratio="0.213102951764" speed="13.89" to="node_03x17" type="highway.undefined" />
    <edge disallow="tram rail_urban rail rail_electric ship" dump_speed="11.12" from="node_03x19" id="xedge_03x38" len="100.0" numLanes="1" priority="5" slowdown="2.77" slowdown_ratio="0.199424046076" speed="13.89" to="node_03x20" type="highway.undefined" />
    <edge disallow="tram rail_urban rail rail_electric ship" dump_speed="9.8" from="node_03x20" id="xedge_03x39" len="100.0" numLanes="1" priority="5" slowdown="4.09" slowdown_ratio="0.294456443485" speed="13.89" to="node_03x19" type="highway.undefined" />
    <edge disallow="tram rail_urban rail rail_electric ship" dump_speed="10.84" from="node_04x02" id="xedge_04x04" len="100.0" numLanes="1" priority="5" slowdown="3.05" slowdown_ratio="0.219582433405" speed="13.89" to="node_04x03" type="highway.undefined" />
    <edge disallow="tram rail_urban rail rail_electric ship" dump_speed="10.63" from="node_04x03" id="xedge_04x05" len="100.0" numLanes="1" priority="5" slowdown="3.26" slowdown_ratio="0.234701223902" speed="13.89" to="node_04x02" type="highway.undefined" />
    <edge disallow="tram rail_urban rail rail_electric ship" dump_speed="9.62" from="node_04x04" id="xedge_04x08" len="100.0" numLanes="1" priority="5" slowdown="4.27" slowdown_ratio="0.307415406767" speed="13.89" to="node_04x05" type="highway.undefined" />
    <edge disallow="tram rail_urban rail rail_electric ship" dump_speed="10.75" from="node_04x05" id="xedge_04x09" len="100.0" numLanes="1" priority="5" slowdown="3.14" slowdown_ratio="0.226061915047" speed="13.89" to="node_04x04" type="highway.undefined" />
    <edge disallow="tram rail_urban rail rail_electric ship" dump_speed="10.02" from="node_04x08" id="xedge_04x16" len="100.0" numLanes="1" priority="5" slowdown="3.87" slowdown_ratio="0.278617710583" speed="13.89" to="node_04x09" type="highway.undefined" />
    <edge disallow="tram rail_urban rail rail_electric ship" dump_speed="4.24" from="node_04x09" id="xedge_04x17" len="100.0" numLanes="1" priority="5" slowdown="9.65" slowdown_ratio="0.694744420446" speed="13.89" to="node_04x08" type="highway.undefined" />
    <edge disallow="tram rail_urban rail rail_electric ship" dump_speed="1.94" from="node_04x09" id="xedge_04x18" len="100.0" numLanes="1" priority="5" slowdown="11.95" slowdown_ratio="0.860331173506" speed="13.89" to="node_04x10" type="highway.undefined" />
    <edge disallow="tram rail_urban rail rail_electric ship" dump_speed="10.46" from="node_04x10" id="xedge_04x19" len="100.0" numLanes="1" priority="5" slowdown="3.43" slowdown_ratio="0.24694024478" speed="13.89" to="node_04x09" type="highway.undefined" />
    <edge disallow="tram rail_urban rail rail_electric ship" dump_speed="8.71" from="node_04x10" id="xedge_04x20" len="100.0" numLanes="1" priority="5" slowdown="5.18" slowdown_ratio="0.372930165587" speed="13.89" to="node_04x11" type="highway.undefined" />
    <edge disallow="tram rail_urban rail rail_electric ship" dump_speed="2.99" from="node_04x11" id="xedge_04x21" len="100.0" numLanes="1" priority="5" slowdown="10.9" slowdown_ratio="0.784737221022" speed="13.89" to="node_04x10" type="highway.undefined" />
    <edge disallow="tram rail_urban rail rail_electric ship" dump_speed="9.81" from="node_04x11" id="xedge_04x22" len="100.0" numLanes="1" priority="5" slowdown="4.08" slowdown_ratio="0.29373650108" speed="13.89" to="node_04x12" type="highway.undefined" />
    <edge disallow="tram rail_urban rail rail_electric ship" dump_speed="9.6" from="node_04x12" id="xedge_04x23" len="100.0" numLanes="1" priority="5" slowdown="4.29" slowdown_ratio="0.308855291577" speed="13.89" to="node_04x11" type="highway.undefined" />
    <edge disallow="tram rail_urban rail rail_electric ship" dump_speed="11.01" from="node_04x12" id="xedge_04x24" len="100.0" numLanes="1" priority="5" slowdown="2.88" slowdown_ratio="0.207343412527" speed="13.89" to="node_04x13" type="highway.undefined" />