<?xml version='1.0' encoding='UTF-8'?>
<nodes xmlns:xsi="http://www.w3.org/2001/XMLSchema-instance" version="0.27" xsi:noNamespaceSchemaLocation="http://sumo.dlr.de/xsd/edges_file.xsd"><node avg_slowdown_ratio="0.642428605713" id="node_10x09" type="right_before_left" weight_num="3.0" weight_sum="1.92728581714" x="1000.00" y="900.00" />
    <node avg_slowdown_ratio="0.610271178307" id="node_09x09" type="right_before_left" weight_num="3.0" weight_sum="1.83081353492" x="900.00" y="900.00" />
    <node avg_slowdown_ratio="0.60019198464" id="node_11x09" type="right_before_left" weight_num="3.0" weight_sum="1.80057595392" x="1100.00" y="900.00" />
    <node avg_slowdown_ratio="0.580813534917" id="node_13x13" type="right_before_left" weight_num="4.0" weight_sum="2.32325413967" x="1300.00" y="1300.00" />
    <node avg_slowdown_ratio="0.551835853133" id="node_13x14" type="right_before_left" weight_num="4.0" weight_sum="2.20734341253" x="1300.00" y="1400.00" />
    <node avg_slowdown_ratio="0.51403887689" id="node_14x12" type="right_before_left" weight_num="3.0" weight_sum="1.54211663067" x="1400.00" y="1200.00" />
    <node avg_slowdown_ratio="0.492800575954" id="node_14x13" type="right_before_left" weight_num="2.0" weight_sum="0.985601151908" x="1400.00" y="1300.00" />
    <node avg_slowdown_ratio="0.460043196542" id="node_14x10" type="right_before_left" weight_num="4.0" weight_sum="1.84017278617" x="1400.00" y="1000.00" />
    <node avg_slowdown_ratio="0.45620350372" id="node_08x09" type="right_before_left" weight_num="3.0" weight_sum="1.36861051116" x="800.00" y="900.00" />
    <node avg_slowdown_ratio="0.427885769137" id="node_13x08" type="right_before_left" weight_num="3.0" weight_sum="1.28365730741" x="1300.00" y="800.00" />
    <node avg_slowdown_ratio="0.425485961125" id="node_04x08" type="right_before_left" weight_num="4.0" weight_sum="1.7019438445" x="400.00" y="800.00" />
    <node avg_slowdown_ratio="0.416666666665" id="node_07x09" type="right_before_left" weight_num="4.0" weight_sum="1.66666666666" x="700.00" y="900.00" />
    <node avg_slowdown_ratio="0.410007199425" id="node_06x09" type="right_before_left" weight_num="4.0" weight_sum="1.6400287977" x="600.00" y="900.00" />
    <node avg_slowdown_ratio="0.400287976963" id="node_08x15" type="right_before_left" weight_num="4.0" weight_sum="1.60115190785" x="800.00" y="1500.00" />
    <node avg_slowdown_ratio="0.393328533717" id="node_13x07" type="right_before_left" weight_num="3.0" weight_sum="1.17998560115" x="1300.00" y="700.00" />
    <node avg_slowdown_ratio="0.39218862491" id="node_08x12" type="right_before_left" weight_num="4.0" weight_sum="1.56875449964" x="800.00" y="1200.00" />
    <node avg_slowdown_ratio="0.383729301655" id="node_12x08" type="right_before_left" weight_num="4.0" weight_sum="1.53491720662" x="1200.00" y="800.00" />
    <node avg_slowdown_ratio="0.3750899928" id="node_06x14" type="right_before_left" weight_num="4.0" weight_sum="1.5003599712" x="600.00" y="1400.00" />
    <node avg_slowdown_ratio="0.374190064795" id="node_05x08" type="right_before_left" weight_num="4.0" weight_sum="1.49676025918" x="500.00" y="800.00" />
    <node avg_slowdown_ratio="0.37341012719" id="node_13x10" type="right_before_left" weight_num="3.0" weight_sum="1.12023038157" x="1300.00" y="1000.00" />
    <node avg_slowdown_ratio="0.366210703143" id="node_06x08" type="right_before_left" weight_num="3.0" weight_sum="1.09863210943" x="600.00" y="800.00" />
    <node avg_slowdown_ratio="0.363570914327" id="node_04x07" type="right_before_left" weight_num="4.0" weight_sum="1.45428365731" x="400.00" y="700.00" />
    <node avg_slowdown_ratio="0.353971682267" id="node_11x08" type="right_before_left" weight_num="3.0" weight_sum="1.0619150468" x="1100.00" y="800.00" />
    <node avg_slowdown_ratio="0.350791936645" id="node_14x09" type="right_before_left" weight_num="4.0" weight_sum="1.40316774658" x="1400.00" y="900.00" />
    <node avg_slowdown_ratio="0.339332853373" id="node_12x06" type="right_before_left" weight_num="3.0" weight_sum="1.01799856012" x="1200.00" y="600.00" />
    <node avg_slowdown_ratio="0.33285337173" id="node_14x11" type="right_before_left" weight_num="3.0" weight_sum="0.998560115191" x="1400.00" y="1100.00" />
    <node avg_slowdown_ratio="0.330273578115" id="node_03x07" type="right_before_left" weight_num="4.0" weight_sum="1.32109431246" x="300.00" y="700.00" />
    <node avg_slowdown_ratio="0.330213582913" id="node_12x05" type="right_before_left" weight_num="3.0" weight_sum="0.99064074874" x="1200.00" y="500.00" />
    <node avg_slowdown_ratio="0.324514038878" id="node_16x15" type="right_before_left" weight_num="4.0" weight_sum="1.29805615551" x="1600.00" y="1500.00" />
    <node avg_slowdown_ratio="0.319294456442" id="node_08x10" type="right_before_left" weight_num="4.0" weight_sum="1.27717782577" x="800.00" y="1000.00" />
    <node avg_slowdown_ratio="0.318454523638" id="node_11x05" type="right_before_left" weight_num="3.0" weight_sum="0.955363570915" x="1100.00" y="500.00" />
    <node avg_slowdown_ratio="0.317494600432" id="node_08x14" type="right_before_left" weight_num="3.0" weight_sum="0.952483801296" x="800.00" y="1400.00" />
    <node avg_slowdown_ratio="0.313714902807" id="node_11x10" type="right_before_left" weight_num="4.0" weight_sum="1.25485961123" x="1100.00" y="1000.00" />
    <node avg_slowdown_ratio="0.312694984401" id="node_06x10" type="right_before_left" weight_num="3.0" weight_sum="0.938084953203" x="600.00" y="1000.00" />
    <node avg_slowdown_ratio="0.309755219583" id="node_11x03" type="right_before_left" weight_num="4.0" weight_sum="1.23902087833" x="1100.00" y="300.00" />
    <node avg_slowdown_ratio="0.308375329974" id="node_14x14" type="right_before_left" weight_num="3.0" weight_sum="0.925125989921" x="1400.00" y="1400.00" />
    <node avg_slowdown_ratio="0.306695464363" id="node_08x11" type="right_before_left" weight_num="3.0" weight_sum="0.920086393089" x="800.00" y="1100.00" />
    <node avg_slowdown_ratio="0.306455483561" id="node_12x12" type="right_before_left" weight_num="3.0" weight_sum="0.919366450683" x="1200.00" y="1200.00" />
    <node avg_slowdown_ratio="0.301295896327" id="node_04x11" type="right_before_left" weight_num="4.0" weight_sum="1.20518358531" x="400.00" y="1100.00" />
    <node avg_slowdown_ratio="0.301175905928" id="node_18x01" type="right_before_left" weight_num="3.0" weight_sum="0.903527717783" x="1800.00" y="100.00" />
    <node avg_slowdown_ratio="0.300695944324" id="node_15x15" type="right_before_left" weight_num="3.0" weight_sum="0.902087832973" x="1500.00" y="1500.00" />
    <node avg_slowdown_ratio="0.299736021118" id="node_13x12" type="right_before_left" weight_num="3.0" weight_sum="0.899208063355" x="1300.00" y="1200.00" />
    <node avg_slowdown_ratio="0.299256059515" id="node_16x14" type="right_before_left" weight_num="3.0" weight_sum="0.897768178546" x="1600.00" y="1400.00" />
    <node avg_slowdown_ratio="0.298296136309" id="node_13x04" type="right_before_left" weight_num="3.0" weight_sum="0.894888408927" x="1300.00" y="400.00" />
    <node avg_slowdown_ratio="0.297096232301" id="node_15x14" type="right_before_left" weight_num="3.0" weight_sum="0.891288696904" x="1500.00" y="1400.00" />
    <node avg_slowdown_ratio="0.296616270698" id="node_04x12" type="right_before_left" weight_num="3.0" weight_sum="0.889848812095" x="400.00" y="1200.00" />
    <node avg_slowdown_ratio="0.294936405088" id="node_08x13" type="right_before_left" weight_num="3.0" weight_sum="0.884809215263" x="800.00" y="1300.00" />
    <node avg_slowdown_ratio="0.294456443485" id="node_15x07" type="right_before_left" weight_num="4.0" weight_sum="1.17782577394" x="1500.00" y="700.00" />
    <node avg_slowdown_ratio="0.293196544278" id="node_02x05" type="right_before_left" weight_num="4.0" weight_sum="1.17278617711" x="200.00" y="500.00" />
    <node avg_slowdown_ratio="0.293016558675" id="node_15x12" type="right_before_left" weight_num="3.0" weight_sum="0.879049676026" x="1500.00" y="1200.00" />
    <node avg_slowdown_ratio="0.292776577874" id="node_12x10" type="right_before_left" weight_num="3.0" weight_sum="0.878329733621" x="1200.00" y="1000.00" />
    <node avg_slowdown_ratio="0.292056635469" id="node_11x17" type="right_before_left" weight_num="3.0" weight_sum="0.876169906408" x="1100.00" y="1700.00" />
    <node avg_slowdown_ratio="0.291336693065" id="node_02x07" type="right_before_left" weight_num="3.0" weight_sum="0.874010079194" x="200.00" y="700.00" />
    <node avg_slowdown_ratio="0.291216702662" id="node_04x13" type="right_before_left" weight_num="4.0" weight_sum="1.16486681065" x="400.00" y="1300.00" />
    <node avg_slowdown_ratio="0.290856731461" id="node_00x09" type="right_before_left" weight_num="2.0" weight_sum="0.581713462923" x="0.00" y="900.00" />
    <node avg_slowdown_ratio="0.289596832252" id="node_15x05" type="right_before_left" weight_num="4.0" weight_sum="1.15838732901" x="1500.00" y="500.00" />
    <node avg_slowdown_ratio="0.287976961843" id="node_11x11" type="right_before_left" weight_num="3.0" weight_sum="0.863930885529" x="1100.00" y="1100.00" />
    <node avg_slowdown_ratio="0.28749700024" id="node_20x12" type="right_before_left" weight_num="3.0" weight_sum="0.86249100072" x="2000.00" y="1200.00" />
    <node avg_slowdown_ratio="0.28599712023" id="node_15x09" type="right_before_left" weight_num="4.0" weight_sum="1.14398848092" x="1500.00" y="900.00" />
    <node avg_slowdown_ratio="0.285097192225" id="node_06x16" type="right_before_left" weight_num="4.0" weight_sum="1.1403887689" x="600.00" y="1600.00" />
    <node avg_slowdown_ratio="0.284857211423" id="node_10x08" type="right_before_left" weight_num="3.0" weight_sum="0.85457163427" x="1000.00" y="800.00" />
    <node avg_slowdown_ratio="0.283657307415" id="node_09x10" type="right_before_left" weight_num="3.0" weight_sum="0.850971922246" x="900.00" y="1000.00" />
    <node avg_slowdown_ratio="0.283657307415" id="node_09x16" type="right_before_left" weight_num="4.0" weight_sum="1.13462922966" x="900.00" y="1600.00" />
    <node avg_slowdown_ratio="0.28293736501" id="node_18x15" type="right_before_left" weight_num="4.0" weight_sum="1.13174946004" x="1800.00" y="1500.00" />
    <node avg_slowdown_ratio="0.28275737941" id="node_03x19" type="right_before_left" weight_num="4.0" weight_sum="1.13102951764" x="300.00" y="1900.00" />
    <node avg_slowdown_ratio="0.282037437005" id="node_17x06" type="right_before_left" weight_num="4.0" weight_sum="1.12814974802" x="1700.00" y="600.00" />
    <node avg_slowdown_ratio="0.281977441805" id="node_15x19" type="right_before_left" weight_num="3.0" weight_sum="0.845932325415" x="1500.00" y="1900.00" />
    <node avg_slowdown_ratio="0.281857451404" id="node_09x05" type="right_before_left" weight_num="2.0" weight_sum="0.563714902808" x="900.00" y="500.00" />
    <node avg_slowdown_ratio="0.280777537797" id="node_06x11" type="right_before_left" weight_num="3.0" weight_sum="0.842332613391" x="600.00" y="1100.00" />
    <node avg_slowdown_ratio="0.280297576194" id="node_04x06" type="right_before_left" weight_num="3.0" weight_sum="0.840892728581" x="400.00" y="600.00" />
    <node avg_slowdown_ratio="0.280057595393" id="node_18x06" type="right_before_left" weight_num="2.0" weight_sum="0.560115190785" x="1800.00" y="600.00" />
    <node avg_slowdown_ratio="0.27969762419" id="node_10x07" type="right_before_left" weight_num="4.0" weight_sum="1.11879049676" x="1000.00" y="700.00" />
    <node avg_slowdown_ratio="0.279337652988" id="node_05x03" type="right_before_left" weight_num="4.0" weight_sum="1.11735061195" x="500.00" y="300.00" />
    <node avg_slowdown_ratio="0.279157667387" id="node_12x16" type="right_before_left" weight_num="4.0" weight_sum="1.11663066955" x="1200.00" y="1600.00" />
    <node avg_slowdown_ratio="0.278617710583" id="node_01x04" type="right_before_left" weight_num="2.0" weight_sum="0.557235421167" x="100.00" y="400.00" />
    <node avg_slowdown_ratio="0.278257739381" id="node_14x01" type="right_before_left" weight_num="2.0" weight_sum="0.556515478761" x="1400.00" y="100.00" />
    <node avg_slowdown_ratio="0.277897768179" id="node_12x02" type="right_before_left" weight_num="3.0" weight_sum="0.833693304536" x="1200.00" y="200.00" />
    <node avg_slowdown_ratio="0.277897768178" id="node_08x16" type="right_before_left" weight_num="3.0" weight_sum="0.833693304535" x="800.00" y="1600.00" />
    <node avg_slowdown_ratio="0.277897768178" id="node_18x09" type="right_before_left" weight_num="2.0" weight_sum="0.555795536357" x="1800.00" y="900.00" />
    <node avg_slowdown_ratio="0.276457883369" id="node_09x03" type="right_before_left" weight_num="3.0" weight_sum="0.829373650108" x="900.00" y="300.00" />
    <node avg_slowdown_ratio="0.275977921766" id="node_06x04" type="right_before_left" weight_num="3.0" weight_sum="0.827933765299" x="600.00" y="400.00" />
    <node avg_slowdown_ratio="0.275737940965" id="node_05x05" type="right_before_left" weight_num="3.0" weight_sum="0.827213822894" x="500.00" y="500.00" />
    <node avg_slowdown_ratio="0.275497960163" id="node_16x09" type="right_before_left" weight_num="3.0" weight_sum="0.826493880489" x="1600.00" y="900.00" />
    <node avg_slowdown_ratio="0.275257979362" id="node_05x10" type="right_before_left" weight_num="3.0" weight_sum="0.825773938085" x="500.00" y="1000.00" />
    <node avg_slowdown_ratio="0.275257979362" id="node_11x04" type="right_before_left" weight_num="3.0" weight_sum="0.825773938085" x="1100.00" y="400.00" />
    <node avg_slowdown_ratio="0.27483801296" id="node_17x05" type="right_before_left" weight_num="4.0" weight_sum="1.09935205184" x="1700.00" y="500.00" />
    <node avg_slowdown_ratio="0.274658027358" id="node_01x00" type="right_before_left" weight_num="2.0" weight_sum="0.549316054715" x="100.00" y="0.00" />
    <node avg_slowdown_ratio="0.274298056156" id="node_02x10" type="right_before_left" weight_num="3.0" weight_sum="0.822894168467" x="200.00" y="1000.00" />
    <node avg_slowdown_ratio="0.274298056155" id="node_09x02" type="right_before_left" weight_num="4.0" weight_sum="1.09719222462" x="900.00" y="200.00" />
    <node avg_slowdown_ratio="0.274058075354" id="node_20x06" type="right_before_left" weight_num="3.0" weight_sum="0.822174226062" x="2000.00" y="600.00" />
    <node avg_slowdown_ratio="0.273818094552" id="node_07x03" type="right_before_left" weight_num="3.0" weight_sum="0.821454283657" x="700.00" y="300.00" />
    <node avg_slowdown_ratio="0.273578113751" id="node_07x18" type="right_before_left" weight_num="2.0" weight_sum="0.547156227501" x="700.00" y="1800.00" />
    <node avg_slowdown_ratio="0.27339812815" id="node_05x11" type="right_before_left" weight_num="4.0" weight_sum="1.0935925126" x="500.00" y="1100.00" />
    <node avg_slowdown_ratio="0.273338132949" id="node_17x19" type="right_before_left" weight_num="3.0" weight_sum="0.820014398848" x="1700.00" y="1900.00" />
    <node avg_slowdown_ratio="0.273218142549" id="node_02x20" type="right_before_left" weight_num="2.0" weight_sum="0.546436285097" x="200.00" y="2000.00" />
    <node avg_slowdown_ratio="0.272858171346" id="node_13x06" type="right_before_left" weight_num="3.0" weight_sum="0.818574514039" x="1300.00" y="600.00" />
    <node avg_slowdown_ratio="0.272498200145" id="node_01x12" type="right_before_left" weight_num="4.0" weight_sum="1.08999280058" x="100.00" y="1200.00" />
    <node avg_slowdown_ratio="0.272498200145" id="node_13x01" type="right_before_left" weight_num="4.0" weight_sum="1.08999280058" x="1300.00" y="100.00" />
    <node avg_slowdown_ratio="0.272378209743" id="node_06x12" type="right_before_left" weight_num="3.0" weight_sum="0.81713462923" x="600.00" y="1200.00" />
    <node avg_slowdown_ratio="0.272138228943" id="node_05x18" type="right_before_left" weight_num="4.0" weight_sum="1.08855291577" x="500.00" y="1800.00" />
    <node avg_slowdown_ratio="0.272138228942" id="node_05x09" type="right_before_left" weight_num="2.0" weight_sum="0.544276457883" x="500.00" y="900.00" />
    <node avg_slowdown_ratio="0.27195824334" id="node_03x16" type="right_before_left" weight_num="4.0" weight_sum="1.08783297336" x="300.00" y="1600.00" />
    <node avg_slowdown_ratio="0.27189824814" id="node_11x16" type="right_before_left" weight_num="3.0" weight_sum="0.81569474442" x="1100.00" y="1600.00" />
    <node avg_slowdown_ratio="0.271778257739" id="node_00x01" type="right_before_left" weight_num="2.0" weight_sum="0.543556515478" x="0.00" y="100.00" />
    <node avg_slowdown_ratio="0.271418286537" id="node_19x10" type="right_before_left" weight_num="2.0" weight_sum="0.542836573075" x="1900.00" y="1000.00" />
    <node avg_slowdown_ratio="0.271178305736" id="node_17x12" type="right_before_left" weight_num="3.0" weight_sum="0.813534917207" x="1700.00" y="1200.00" />
    <node avg_slowdown_ratio="0.271178305736" id="node_19x04" type="right_before_left" weight_num="3.0" weight_sum="0.813534917207" x="1900.00" y="400.00" />
    <node avg_slowdown_ratio="0.270878329732" id="node_04x03" type="right_before_left" weight_num="4.0" weight_sum="1.08351331893" x="400.00" y="300.00" />
    <node avg_slowdown_ratio="0.269978401728" id="node_01x17" type="right_before_left" weight_num="3.0" weight_sum="0.809935205184" x="100.00" y="1700.00" />
    <node avg_slowdown_ratio="0.269738420926" id="node_13x20" type="right_before_left" weight_num="3.0" weight_sum="0.809215262779" x="1300.00" y="2000.00" />
    <node avg_slowdown_ratio="0.269258459323" id="node_07x06" type="right_before_left" weight_num="2.0" weight_sum="0.538516918646" x="700.00" y="600.00" />
    <node avg_slowdown_ratio="0.268538516919" id="node_03x15" type="right_before_left" weight_num="3.0" weight_sum="0.805615550757" x="300.00" y="1500.00" />
    <node avg_slowdown_ratio="0.268538516918" id="node_00x08" type="right_before_left" weight_num="3.0" weight_sum="0.805615550755" x="0.00" y="800.00" />
    <node avg_slowdown_ratio="0.268298536117" id="node_11x00" type="right_before_left" weight_num="3.0" weight_sum="0.804895608351" x="1100.00" y="0.00" />
    <node avg_slowdown_ratio="0.267638588912" id="node_10x03" type="right_before_left" weight_num="4.0" weight_sum="1.07055435565" x="1000.00" y="300.00" />
    <node avg_slowdown_ratio="0.267578593712" id="node_07x08" type="right_before_left" weight_num="3.0" weight_sum="0.802735781137" x="700.00" y="800.00" />
    <node avg_slowdown_ratio="0.267458603312" id="node_16x07" type="right_before_left" weight_num="4.0" weight_sum="1.06983441325" x="1600.00" y="700.00" />
    <node avg_slowdown_ratio="0.267458603312" id="node_16x08" type="right_before_left" weight_num="4.0" weight_sum="1.06983441325" x="1600.00" y="800.00" />
    <node avg_slowdown_ratio="0.267338612911" id="node_11x07" type="right_before_left" weight_num="3.0" weight_sum="0.802015838733" x="1100.00" y="700.00" />
    <node avg_slowdown_ratio="0.26709863211" id="node_11x02" type="right_before_left" weight_num="3.0" weight_sum="0.801295896329" x="1100.00" y="200.00" />
    <node avg_slowdown_ratio="0.267098632109" id="node_01x08" type="right_before_left" weight_num="3.0" weight_sum="0.801295896328" x="100.00" y="800.00" />
    <node avg_slowdown_ratio="0.266618670506" id="node_05x16" type="right_before_left" weight_num="3.0" weight_sum="0.799856011519" x="500.00" y="1600.00" />
    <node avg_slowdown_ratio="0.266558675305" id="node_15x17" type="right_before_left" weight_num="4.0" weight_sum="1.06623470122" x="1500.00" y="1700.00" />
    <node avg_slowdown_ratio="0.266378689705" id="node_19x06" type="right_before_left" weight_num="2.0" weight_sum="0.53275737941" x="1900.00" y="600.00" />
    <node avg_slowdown_ratio="0.266018718502" id="node_02x03" type="right_before_left" weight_num="4.0" weight_sum="1.06407487401" x="200.00" y="300.00" />
    <node avg_slowdown_ratio="0.2656587473" id="node_15x08" type="right_before_left" weight_num="3.0" weight_sum="0.796976241901" x="1500.00" y="800.00" />
    <node avg_slowdown_ratio="0.265298776098" id="node_14x16" type="right_before_left" weight_num="2.0" weight_sum="0.530597552196" x="1400.00" y="1600.00" />
    <node avg_slowdown_ratio="0.265118790497" id="node_04x14" type="right_before_left" weight_num="4.0" weight_sum="1.06047516199" x="400.00" y="1400.00" />
    <node avg_slowdown_ratio="0.264698824094" id="node_08x03" type="right_before_left" weight_num="3.0" weight_sum="0.794096472282" x="800.00" y="300.00" />
    <node avg_slowdown_ratio="0.264578833693" id="node_09x15" type="right_before_left" weight_num="2.0" weight_sum="0.529157667387" x="900.00" y="1500.00" />
    <node avg_slowdown_ratio="0.264458843293" id="node_09x17" type="right_before_left" weight_num="3.0" weight_sum="0.793376529878" x="900.00" y="1700.00" />
    <node avg_slowdown_ratio="0.264218862491" id="node_19x02" type="right_before_left" weight_num="3.0" weight_sum="0.792656587473" x="1900.00" y="200.00" />
    <node avg_slowdown_ratio="0.26403887689" id="node_18x03" type="right_before_left" weight_num="4.0" weight_sum="1.05615550756" x="1800.00" y="300.00" />
    <node avg_slowdown_ratio="0.263978881689" id="node_14x19" type="right_before_left" weight_num="3.0" weight_sum="0.791936645068" x="1400.00" y="1900.00" />
    <node avg_slowdown_ratio="0.263858891288" id="node_06x19" type="right_before_left" weight_num="2.0" weight_sum="0.527717782577" x="600.00" y="1900.00" />
    <node avg_slowdown_ratio="0.263258939285" id="node_05x15" type="right_before_left" weight_num="3.0" weight_sum="0.789776817854" x="500.00" y="1500.00" />
    <node avg_slowdown_ratio="0.263258939285" id="node_13x09" type="right_before_left" weight_num="3.0" weight_sum="0.789776817855" x="1300.00" y="900.00" />
    <node avg_slowdown_ratio="0.263018958484" id="node_07x02" type="right_before_left" weight_num="3.0" weight_sum="0.789056875451" x="700.00" y="200.00" />
    <node avg_slowdown_ratio="0.26253899688" id="node_10x16" type="right_before_left" weight_num="3.0" weight_sum="0.787616990641" x="1000.00" y="1600.00" />
    <node avg_slowdown_ratio="0.26241900648" id="node_12x09" type="right_before_left" weight_num="2.0" weight_sum="0.524838012959" x="1200.00" y="900.00" />
    <node avg_slowdown_ratio="0.262299016079" id="node_09x14" type="right_before_left" weight_num="3.0" weight_sum="0.786897048236" x="900.00" y="1400.00" />
    <node avg_slowdown_ratio="0.261579073674" id="node_07x11" type="right_before_left" weight_num="3.0" weight_sum="0.784737221022" x="700.00" y="1100.00" />
    <node avg_slowdown_ratio="0.261339092873" id="node_00x04" type="right_before_left" weight_num="3.0" weight_sum="0.784017278618" x="0.00" y="400.00" />
    <node avg_slowdown_ratio="0.261159107273" id="node_01x18" type="right_before_left" weight_num="4.0" weight_sum="1.04463642909" x="100.00" y="1800.00" />
    <node avg_slowdown_ratio="0.260619150468" id="node_02x06" type="right_before_left" weight_num="3.0" weight_sum="0.781857451404" x="200.00" y="600.00" />
    <node avg_slowdown_ratio="0.260619150468" id="node_19x12" type="right_before_left" weight_num="3.0" weight_sum="0.781857451404" x="1900.00" y="1200.00" />
    <node avg_slowdown_ratio="0.260619150468" id="node_20x08" type="right_before_left" weight_num="3.0" weight_sum="0.781857451404" x="2000.00" y="800.00" />
    <node avg_slowdown_ratio="0.260379169666" id="node_03x12" type="right_before_left" weight_num="3.0" weight_sum="0.781137508999" x="300.00" y="1200.00" />
    <node avg_slowdown_ratio="0.260379169666" id="node_20x14" type="right_before_left" weight_num="3.0" weight_sum="0.781137508998" x="2000.00" y="1400.00" />
    <node avg_slowdown_ratio="0.260259179266" id="node_03x08" type="right_before_left" weight_num="2.0" weight_sum="0.520518358532" x="300.00" y="800.00" />
    <node avg_slowdown_ratio="0.260259179265" id="node_09x01" type="right_before_left" weight_num="4.0" weight_sum="1.04103671706" x="900.00" y="100.00" />
    <node avg_slowdown_ratio="0.259899208063" id="node_00x15" type="right_before_left" weight_num="2.0" weight_sum="0.519798416127" x="0.00" y="1500.00" />
    <node avg_slowdown_ratio="0.259899208063" id="node_03x20" type="right_before_left" weight_num="3.0" weight_sum="0.779697624189" x="300.00" y="2000.00" />
    <node avg_slowdown_ratio="0.259899208063" id="node_18x07" type="right_before_left" weight_num="3.0" weight_sum="0.77969762419" x="1800.00" y="700.00" />
    <node avg_slowdown_ratio="0.259659227262" id="node_12x17" type="right_before_left" weight_num="3.0" weight_sum="0.778977681785" x="1200.00" y="1700.00" />
    <node avg_slowdown_ratio="0.259539236861" id="node_13x19" type="right_before_left" weight_num="2.0" weight_sum="0.519078473722" x="1300.00" y="1900.00" />
    <node avg_slowdown_ratio="0.25941924646" id="node_04x00" type="right_before_left" weight_num="3.0" weight_sum="0.778257739381" x="400.00" y="0.00" />
    <node avg_slowdown_ratio="0.25935925126" id="node_12x03" type="right_before_left" weight_num="4.0" weight_sum="1.03743700504" x="1200.00" y="300.00" />
    <node avg_slowdown_ratio="0.259179265659" id="node_16x01" type="right_before_left" weight_num="3.0" weight_sum="0.777537796976" x="1600.00" y="100.00" />
    <node avg_slowdown_ratio="0.258099352053" id="node_08x19" type="right_before_left" weight_num="4.0" weight_sum="1.03239740821" x="800.00" y="1900.00" />
    <node avg_slowdown_ratio="0.257259419246" id="node_03x14" type="right_before_left" weight_num="3.0" weight_sum="0.771778257739" x="300.00" y="1400.00" />
    <node avg_slowdown_ratio="0.257019438445" id="node_08x00" type="right_before_left" weight_num="2.0" weight_sum="0.51403887689" x="800.00" y="0.00" />
    <node avg_slowdown_ratio="0.257019438445" id="node_19x07" type="right_before_left" weight_num="2.0" weight_sum="0.51403887689" x="1900.00" y="700.00" />
    <node avg_slowdown_ratio="0.256839452845" id="node_10x17" type="right_before_left" weight_num="4.0" weight_sum="1.02735781138" x="1000.00" y="1700.00" />
    <node avg_slowdown_ratio="0.256779457643" id="node_15x03" type="right_before_left" weight_num="3.0" weight_sum="0.77033837293" x="1500.00" y="300.00" />
    <node avg_slowdown_ratio="0.256659467242" id="node_09x04" type="right_before_left" weight_num="4.0" weight_sum="1.02663786897" x="900.00" y="400.00" />
    <node avg_slowdown_ratio="0.256659467242" id="node_10x01" type="right_before_left" weight_num="2.0" weight_sum="0.513318934485" x="1000.00" y="100.00" />
    <node avg_slowdown_ratio="0.256539476842" id="node_05x01" type="right_before_left" weight_num="3.0" weight_sum="0.769618430526" x="500.00" y="100.00" />
    <node avg_slowdown_ratio="0.25629949604" id="node_06x15" type="right_before_left" weight_num="3.0" weight_sum="0.768898488121" x="600.00" y="1500.00" />
    <node avg_slowdown_ratio="0.25629949604" id="node_06x18" type="right_before_left" weight_num="3.0" weight_sum="0.768898488121" x="600.00" y="1800.00" />
    <node avg_slowdown_ratio="0.256059515239" id="node_00x07" type="right_before_left" weight_num="3.0" weight_sum="0.768178545716" x="0.00" y="700.00" />
    <node avg_slowdown_ratio="0.256059515239" id="node_03x05" type="right_before_left" weight_num="3.0" weight_sum="0.768178545717" x="300.00" y="500.00" />
    <node avg_slowdown_ratio="0.256059515239" id="node_09x07" type="right_before_left" weight_num="3.0" weight_sum="0.768178545716" x="900.00" y="700.00" />
    <node avg_slowdown_ratio="0.255939524838" id="node_01x16" type="right_before_left" weight_num="2.0" weight_sum="0.511879049676" x="100.00" y="1600.00" />
    <node avg_slowdown_ratio="0.255819534437" id="node_13x02" type="right_before_left" weight_num="3.0" weight_sum="0.767458603311" x="1300.00" y="200.00" />
    <node avg_slowdown_ratio="0.255819534437" id="node_20x17" type="right_before_left" weight_num="3.0" weight_sum="0.767458603312" x="2000.00" y="1700.00" />
    <node avg_slowdown_ratio="0.255759539237" id="node_06x17" type="right_before_left" weight_num="4.0" weight_sum="1.02303815695" x="600.00" y="1700.00" />
    <node avg_slowdown_ratio="0.255759539237" id="node_11x19" type="right_before_left" weight_num="4.0" weight_sum="1.02303815695" x="1100.00" y="1900.00" />
    <node avg_slowdown_ratio="0.255579553636" id="node_19x14" type="right_before_left" weight_num="2.0" weight_sum="0.511159107271" x="1900.00" y="1400.00" />
    <node avg_slowdown_ratio="0.255339572834" id="node_00x03" type="right_before_left" weight_num="3.0" weight_sum="0.766018718503" x="0.00" y="300.00" />
    <node avg_slowdown_ratio="0.255339572834" id="node_15x06" type="right_before_left" weight_num="3.0" weight_sum="0.766018718503" x="1500.00" y="600.00" />
    <node avg_slowdown_ratio="0.255219582434" id="node_04x20" type="right_before_left" weight_num="2.0" weight_sum="0.510439164867" x="400.00" y="2000.00" />
    <node avg_slowdown_ratio="0.254859611231" id="node_14x15" type="right_before_left" weight_num="3.0" weight_sum="0.764578833693" x="1400.00" y="1500.00" />
    <node avg_slowdown_ratio="0.254619630429" id="node_10x20" type="right_before_left" weight_num="3.0" weight_sum="0.763858891288" x="1000.00" y="2000.00" />
    <node avg_slowdown_ratio="0.254499640029" id="node_20x19" type="right_before_left" weight_num="2.0" weight_sum="0.508999280058" x="2000.00" y="1900.00" />
    <node avg_slowdown_ratio="0.254379649628" id="node_02x09" type="right_before_left" weight_num="3.0" weight_sum="0.763138948885" x="200.00" y="900.00" />
    <node avg_slowdown_ratio="0.254139668827" id="node_11x20" type="right_before_left" weight_num="3.0" weight_sum="0.76241900648" x="1100.00" y="2000.00" />
    <node avg_slowdown_ratio="0.254139668826" id="node_13x17" type="right_before_left" weight_num="3.0" weight_sum="0.762419006479" x="1300.00" y="1700.00" />