<?xml version='1.0' encoding='UTF-8'?>
<nodes xmlns:xsi="http://www.w3.org/2001/XMLSchema-instance" version="0.27" xsi:noNamespaceSchemaLocation="http://sumo.dlr.de/xsd/edges_file.xsd"><node avg_slowdown_ratio="0.71382289417" id="node_12x10" junction="True" old_x="1200.0" old_y="1000.0" type="right_before_left" weight_num="4.0" weight_sum="2.85529157668" x="2473.9223249" x_displacement_sum="1273.9223249" y="1203.77270408" y_displacement_sum="203.772704083" />
    <node avg_slowdown_ratio="0.711663066955" id="node_12x11" junction="True" old_x="1200.0" old_y="1100.0" type="right_before_left" weight_num="4.0" weight_sum="2.84665226782" x="2491.41518457" x_displacement_sum="1291.41518457" y="1912.33819355" y_displacement_sum="812.338193549" />
    <node avg_slowdown_ratio="0.710043196545" id="node_10x08" junction="True" old_x="1000.0" old_y="800.0" type="right_before_left" weight_num="4.0" weight_sum="2.84017278618" x="809.282452579" x_displacement_sum="-190.717547421" y="-458.29965088" y_displacement_sum="-1258.29965088" />
    <node avg_slowdown_ratio="0.674046076315" id="node_11x11" junction="True" old_x="1100.0" old_y="1100.0" type="right_before_left" weight_num="4.0" weight_sum="2.69618430526" x="1843.66402885" x_displacement_sum="743.664028849" y="1936.86270759" y_displacement_sum="836.862707588" />
    <node avg_slowdown_ratio="0.65172786177" id="node_10x07" junction="True" old_x="1000.0" old_y="700.0" type="right_before_left" weight_num="4.0" weight_sum="2.60691144708" x="738.630181572" x_displacement_sum="-261.369818428" y="-1095.37724213" y_displacement_sum="-1795.37724213" />
    <node avg_slowdown_ratio="0.649028077753" id="node_10x09" junction="True" old_x="1000.0" old_y="900.0" type="right_before_left" weight_num="4.0" weight_sum="2.59611231101" x="942.40438004" x_displacement_sum="-57.5956199603" y="162.378847302" y_displacement_sum="-737.621152698" />
    <node avg_slowdown_ratio="0.645968322535" id="node_11x10" junction="True" old_x="1100.0" old_y="1000.0" type="right_before_left" weight_num="4.0" weight_sum="2.58387329014" x="1720.02310387" x_displacement_sum="620.023103866" y="1119.97632395" y_displacement_sum="119.976323949" />
    <node avg_slowdown_ratio="0.641828653707" id="node_12x12" junction="True" old_x="1200.0" old_y="1200.0" type="right_before_left" weight_num="4.0" weight_sum="2.56731461483" x="2351.02491479" x_displacement_sum="1151.02491479" y="2592.81116366" y_displacement_sum="1392.81116366" />
    <node avg_slowdown_ratio="0.640568754497" id="node_11x12" junction="True" old_x="1100.0" old_y="1200.0" type="right_before_left" weight_num="4.0" weight_sum="2.56227501799" x="1853.08280088" x_displacement_sum="753.08280088" y="2698.66557557" y_displacement_sum="1498.66557557" />
    <node avg_slowdown_ratio="0.638048956085" id="node_12x09" junction="True" old_x="1200.0" old_y="900.0" type="right_before_left" weight_num="4.0" weight_sum="2.55219582434" x="2425.0891433" x_displacement_sum="1225.0891433" y="341.850339934" y_displacement_sum="-558.149660066" />
    <node avg_slowdown_ratio="0.632109431245" id="node_10x11" junction="True" old_x="1000.0" old_y="1100.0" type="right_before_left" weight_num="4.0" weight_sum="2.52843772498" x="1042.11996141" x_displacement_sum="42.1199614112" y="1854.36041863" y_displacement_sum="754.360418634" />
    <node avg_slowdown_ratio="0.628329733622" id="node_08x07" junction="True" old_x="800.0" old_y="700.0" type="right_before_left" weight_num="4.0" weight_sum="2.51331893449" x="-574.02179772" x_displacement_sum="-1374.02179772" y="-1023.26722929" y_displacement_sum="-1723.26722929" />
    <node avg_slowdown_ratio="0.624730021598" id="node_10x10" junction="True" old_x="1000.0" old_y="1000.0" type="right_before_left" weight_num="4.0" weight_sum="2.49892008639" x="992.81271574" x_displacement_sum="-7.18728426045" y="1093.2992189" y_displacement_sum="93.299218899" />
    <node avg_slowdown_ratio="0.621310295175" id="node_09x07" junction="True" old_x="900.0" old_y="700.0" type="right_before_left" weight_num="4.0" weight_sum="2.4852411807" x="-3.469026007" x_displacement_sum="-903.469026007" y="-1071.73051915" y_displacement_sum="-1771.73051915" />
    <node avg_slowdown_ratio="0.620230381567" id="node_09x08" junction="True" old_x="900.0" old_y="800.0" type="right_before_left" weight_num="4.0" weight_sum="2.48092152627" x="25.116006891" x_displacement_sum="-874.883993109" y="-566.78935802" y_displacement_sum="-1366.78935802" />
    <node avg_slowdown_ratio="0.613750899927" id="node_13x10" junction="True" old_x="1300.0" old_y="1000.0" type="right_before_left" weight_num="4.0" weight_sum="2.45500359971" x="3054.39860967" x_displacement_sum="1754.39860967" y="1216.75765775" y_displacement_sum="216.757657752" />
    <node avg_slowdown_ratio="0.613390928728" id="node_10x12" junction="True" old_x="1000.0" old_y="1200.0" type="right_before_left" weight_num="4.0" weight_sum="2.45356371491" x="1028.23853805" x_displacement_sum="28.2385380473" y="2753.43941942" y_displacement_sum="1553.43941942" />
    <node avg_slowdown_ratio="0.613030957525" id="node_08x08" junction="True" old_x="800.0" old_y="800.0" type="right_before_left" weight_num="4.0" weight_sum="2.4521238301" x="-660.62623983" x_displacement_sum="-1460.62623983" y="-605.87462209" y_displacement_sum="-1405.87462209" />
    <node avg_slowdown_ratio="0.61069114471" id="node_11x08" junction="True" old_x="1100.0" old_y="800.0" type="right_before_left" weight_num="4.0" weight_sum="2.44276457884" x="1532.80988558" x_displacement_sum="432.809885576" y="-370.96989548" y_displacement_sum="-1170.96989548" />
    <node avg_slowdown_ratio="0.6094312455" id="node_11x09" junction="True" old_x="1100.0" old_y="900.0" type="right_before_left" weight_num="4.0" weight_sum="2.437724982" x="1641.18663442" x_displacement_sum="541.186634424" y="271.576906637" y_displacement_sum="-628.423093363" />
    <node avg_slowdown_ratio="0.60781137509" id="node_07x09" junction="True" old_x="700.0" old_y="900.0" type="right_before_left" weight_num="4.0" weight_sum="2.43124550036" x="-1318.17971024" x_displacement_sum="-2018.17971024" y="137.6267828" y_displacement_sum="-762.3732172" />
    <node avg_slowdown_ratio="0.60637149028" id="node_07x08" junction="True" old_x="700.0" old_y="800.0" type="right_before_left" weight_num="4.0" weight_sum="2.42548596112" x="-1187.6201834" x_displacement_sum="-1887.6201834" y="-560.13152705" y_displacement_sum="-1360.13152705" />
    <node avg_slowdown_ratio="0.60025197984" id="node_13x11" junction="True" old_x="1300.0" old_y="1100.0" type="right_before_left" weight_num="4.0" weight_sum="2.40100791936" x="2977.44619137" x_displacement_sum="1677.44619137" y="1816.20083493" y_displacement_sum="716.200834928" />
    <node avg_slowdown_ratio="0.59521238301" id="node_09x11" junction="True" old_x="900.0" old_y="1100.0" type="right_before_left" weight_num="4.0" weight_sum="2.38084953204" x="238.840938088" x_displacement_sum="-661.159061912" y="1774.4486262" y_displacement_sum="674.448626204" />
    <node avg_slowdown_ratio="0.589632829375" id="node_09x12" junction="True" old_x="900.0" old_y="1200.0" type="right_before_left" weight_num="4.0" weight_sum="2.3585313175" x="309.239087802" x_displacement_sum="-590.760912198" y="2775.62514294" y_displacement_sum="1575.62514294" />
    <node avg_slowdown_ratio="0.589452843772" id="node_08x09" junction="True" old_x="800.0" old_y="900.0" type="right_before_left" weight_num="4.0" weight_sum="2.35781137509" x="-654.0381911" x_displacement_sum="-1454.0381911" y="110.06669614" y_displacement_sum="-789.93330386" />
    <node avg_slowdown_ratio="0.58747300216" id="node_12x08" junction="True" old_x="1200.0" old_y="800.0" type="right_before_left" weight_num="4.0" weight_sum="2.34989200864" x="2348.98619423" x_displacement_sum="1148.98619423" y="-289.33303705" y_displacement_sum="-1089.33303705" />
    <node avg_slowdown_ratio="0.58603311735" id="node_08x13" junction="True" old_x="800.0" old_y="1300.0" type="right_before_left" weight_num="4.0" weight_sum="2.3441324694" x="-364.52792099" x_displacement_sum="-1164.52792099" y="3251.12106633" y_displacement_sum="1951.12106633" />
    <node avg_slowdown_ratio="0.585673146147" id="node_07x13" junction="True" old_x="700.0" old_y="1300.0" type="right_before_left" weight_num="4.0" weight_sum="2.34269258459" x="-952.55317676" x_displacement_sum="-1652.55317676" y="2982.69563648" y_displacement_sum="1682.69563648" />
    <node avg_slowdown_ratio="0.585673146147" id="node_08x11" junction="True" old_x="800.0" old_y="1100.0" type="right_before_left" weight_num="4.0" weight_sum="2.34269258459" x="-616.04641827" x_displacement_sum="-1416.04641827" y="1709.90393712" y_displacement_sum="609.903937123" />
    <node avg_slowdown_ratio="0.583873290138" id="node_14x10" junction="True" old_x="1400.0" old_y="1000.0" type="right_before_left" weight_num="4.0" weight_sum="2.33549316055" x="3510.7346313" x_displacement_sum="2110.7346313" y="1180.73758708" y_displacement_sum="180.737587084" />
    <node avg_slowdown_ratio="0.58279337653" id="node_07x11" junction="True" old_x="700.0" old_y="1100.0" type="right_before_left" weight_num="4.0" weight_sum="2.33117350612" x="-1262.01651552" x_displacement_sum="-1962.01651552" y="1704.50508645" y_displacement_sum="604.505086446" />
    <node avg_slowdown_ratio="0.582253419725" id="node_09x10" junction="True" old_x="900.0" old_y="1000.0" type="right_before_left" weight_num="4.0" weight_sum="2.3290136789" x="136.362900188" x_displacement_sum="-763.637099812" y="976.065847966" y_displacement_sum="-23.934152034" />
    <node avg_slowdown_ratio="0.581173506122" id="node_11x13" junction="True" old_x="1100.0" old_y="1300.0" type="right_before_left" weight_num="4.0" weight_sum="2.32469402449" x="1707.18595371" x_displacement_sum="607.185953714" y="3296.62565395" y_displacement_sum="1996.62565395" />
    <node avg_slowdown_ratio="0.580453563715" id="node_08x10" junction="True" old_x="800.0" old_y="1000.0" type="right_before_left" weight_num="4.0" weight_sum="2.32181425486" x="-654.43811532" x_displacement_sum="-1454.43811532" y="952.424641876" y_displacement_sum="-47.5753581238" />
    <node avg_slowdown_ratio="0.57667386609" id="node_06x13" junction="True" old_x="600.0" old_y="1300.0" type="right_before_left" weight_num="4.0" weight_sum="2.30669546436" x="-1283.61063717" x_displacement_sum="-1883.61063717" y="2682.86854062" y_displacement_sum="1382.86854062" />
    <node avg_slowdown_ratio="0.576313894887" id="node_10x13" junction="True" old_x="1000.0" old_y="1300.0" type="right_before_left" weight_num="4.0" weight_sum="2.30525557955" x="1002.05877968" x_displacement_sum="2.05877968471" y="3410.14297528" y_displacement_sum="2110.14297528" />
    <node avg_slowdown_ratio="0.571634269255" id="node_07x10" junction="True" old_x="700.0" old_y="1000.0" type="right_before_left" weight_num="4.0" weight_sum="2.28653707702" x="-1276.11857683" x_displacement_sum="-1976.11857683" y="973.798979034" y_displacement_sum="-26.2010209659" />
    <node avg_slowdown_ratio="0.570914326852" id="node_11x07" junction="True" old_x="1100.0" old_y="700.0" type="right_before_left" weight_num="4.0" weight_sum="2.28365730741" x="1520.91268257" x_displacement_sum="420.912682575" y="-1038.87371114" y_displacement_sum="-1738.87371114" />
    <node avg_slowdown_ratio="0.56119510439" id="node_15x11" junction="True" old_x="1500.0" old_y="1100.0" type="right_before_left" weight_num="4.0" weight_sum="2.24478041756" x="3805.3026696" x_displacement_sum="2305.3026696" y="1607.41986977" y_displacement_sum="507.41986977" />
    <node avg_slowdown_ratio="0.560655147588" id="node_08x12" junction="True" old_x="800.0" old_y="1200.0" type="right_before_left" weight_num="4.0" weight_sum="2.24262059035" x="-527.84762474" x_displacement_sum="-1327.84762474" y="2654.17242099" y_displacement_sum="1454.17242099" />
    <node avg_slowdown_ratio="0.55957523398" id="node_09x09" junction="True" old_x="900.0" old_y="900.0" type="right_before_left" weight_num="4.0" weight_sum="2.23830093592" x="96.88174706" x_displacement_sum="-803.11825294" y="125.179158261" y_displacement_sum="-774.820841739" />
    <node avg_slowdown_ratio="0.559035277178" id="node_06x11" junction="True" old_x="600.0" old_y="1100.0" type="right_before_left" weight_num="4.0" weight_sum="2.23614110871" x="-1744.00897852" x_displacement_sum="-2344.00897852" y="1683.27507267" y_displacement_sum="583.275072666" />
    <node avg_slowdown_ratio="0.558135349172" id="node_13x07" junction="True" old_x="1300.0" old_y="700.0" type="right_before_left" weight_num="4.0" weight_sum="2.23254139669" x="2838.77543674" x_displacement_sum="1538.77543674" y="-861.37891329" y_displacement_sum="-1561.37891329" />
    <node avg_slowdown_ratio="0.55813534917" id="node_13x09" junction="True" old_x="1300.0" old_y="900.0" type="right_before_left" weight_num="4.0" weight_sum="2.23254139668" x="3037.56238035" x_displacement_sum="1737.56238035" y="419.660976936" y_displacement_sum="-480.339023064" />
    <node avg_slowdown_ratio="0.55471562275" id="node_11x06" junction="True" old_x="1100.0" old_y="600.0" type="right_before_left" weight_num="4.0" weight_sum="2.218862491" x="1476.38478839" x_displacement_sum="376.384788391" y="-1583.16341125" y_displacement_sum="-2183.16341125" />
    <node avg_slowdown_ratio="0.551835853133" id="node_06x12" junction="True" old_x="600.0" old_y="1200.0" type="right_before_left" weight_num="4.0" weight_sum="2.20734341253" x="-1588.19311123" x_displacement_sum="-2188.19311123" y="2242.08280731" y_displacement_sum="1042.08280731" />
    <node avg_slowdown_ratio="0.550755939528" id="node_13x12" junction="True" old_x="1300.0" old_y="1200.0" type="right_before_left" weight_num="4.0" weight_sum="2.20302375811" x="2814.49052754" x_displacement_sum="1514.49052754" y="2419.24010834" y_displacement_sum="1219.24010834" />
    <node avg_slowdown_ratio="0.547876169907" id="node_12x13" junction="True" old_x="1200.0" old_y="1300.0" type="right_before_left" weight_num="4.0" weight_sum="2.19150467963" x="2181.36919431" x_displacement_sum="981.369194309" y="3132.00121597" y_displacement_sum="1832.00121597" />
    <node avg_slowdown_ratio="0.54247660187" id="node_09x13" junction="True" old_x="900.0" old_y="1300.0" type="right_before_left" weight_num="4.0" weight_sum="2.16990640748" x="388.649835026" x_displacement_sum="-511.350164974" y="3359.20186355" y_displacement_sum="2059.20186355" />
    <node avg_slowdown_ratio="0.541936645067" id="node_13x13" junction="True" old_x="1300.0" old_y="1300.0" type="right_before_left" weight_num="4.0" weight_sum="2.16774658027" x="2670.7972333" x_displacement_sum="1370.7972333" y="2934.085762" y_displacement_sum="1634.085762" />
    <node avg_slowdown_ratio="0.541216702665" id="node_07x12" junction="True" old_x="700.0" old_y="1200.0" type="right_before_left" weight_num="4.0" weight_sum="2.16486681066" x="-1227.27231452" x_displacement_sum="-1927.27231452" y="2454.73034848" y_displacement_sum="1254.73034848" />
    <node avg_slowdown_ratio="0.537796976243" id="node_10x05" junction="True" old_x="1000.0" old_y="500.0" type="right_before_left" weight_num="4.0" weight_sum="2.15118790497" x="801.648033932" x_displacement_sum="-198.351966068" y="-1915.54433331" y_displacement_sum="-2415.54433331" />
    <node avg_slowdown_ratio="0.53437724982" id="node_10x06" junction="True" old_x="1000.0" old_y="600.0" type="right_before_left" weight_num="4.0" weight_sum="2.13750899928" x="778.32360675" x_displacement_sum="-221.67639325" y="-1568.04903582" y_displacement_sum="-2168.04903582" />
    <node avg_slowdown_ratio="0.533837293015" id="node_15x12" junction="True" old_x="1500.0" old_y="1200.0" type="right_before_left" weight_num="4.0" weight_sum="2.13534917206" x="3728.80614663" x_displacement_sum="2228.80614663" y="2076.73049845" y_displacement_sum="876.73049845" />
    <node avg_slowdown_ratio="0.531137508998" id="node_06x10" junction="True" old_x="600.0" old_y="1000.0" type="right_before_left" weight_num="4.0" weight_sum="2.12455003599" x="-1777.02689662" x_displacement_sum="-2377.02689662" y="935.619168098" y_displacement_sum="-64.3808319019" />
    <node avg_slowdown_ratio="0.528977681788" id="node_12x04" junction="True" old_x="1200.0" old_y="400.0" type="right_before_left" weight_num="4.0" weight_sum="2.11591072715" x="1858.75479691" x_displacement_sum="658.754796907" y="-1783.10778843" y_displacement_sum="-2183.10778843" />
    <node avg_slowdown_ratio="0.526997840175" id="node_11x14" junction="True" old_x="1100.0" old_y="1400.0" type="right_before_left" weight_num="4.0" weight_sum="2.1079913607" x="1533.84598527" x_displacement_sum="433.845985272" y="3731.34826477" y_displacement_sum="2331.34826477" />
    <node avg_slowdown_ratio="0.52609791217" id="node_13x08" junction="True" old_x="1300.0" old_y="800.0" type="right_before_left" weight_num="4.0" weight_sum="2.10439164868" x="2944.522833" x_displacement_sum="1644.522833" y="-239.38904522" y_displacement_sum="-1039.38904522" />
    <node avg_slowdown_ratio="0.52051835853" id="node_06x08" junction="True" old_x="600.0" old_y="800.0" type="right_before_left" weight_num="4.0" weight_sum="2.08207343412" x="-1588.59309692" x_displacement_sum="-2188.59309692" y="-403.20847431" y_displacement_sum="-1203.20847431" />
    <node avg_slowdown_ratio="0.519438444923" id="node_14x07" junction="True" old_x="1400.0" old_y="700.0" type="right_before_left" weight_num="4.0" weight_sum="2.07775377969" x="3325.0526998" x_displacement_sum="1925.0526998" y="-721.55046587" y_displacement_sum="-1421.55046587" />
    <node avg_slowdown_ratio="0.519078473723" id="node_14x08" junction="True" old_x="1400.0" old_y="800.0" type="right_before_left" weight_num="4.0" weight_sum="2.07631389489" x="3443.93278386" x_displacement_sum="2043.93278386" y="-123.838791533" y_displacement_sum="-923.838791533" />
    <node avg_slowdown_ratio="0.517818574513" id="node_13x06" junction="True" old_x="1300.0" old_y="600.0" type="right_before_left" weight_num="4.0" weight_sum="2.07127429805" x="2665.82843889" x_displacement_sum="1365.82843889" y="-1311.53679024" y_displacement_sum="-1911.53679024" />
    <node avg_slowdown_ratio="0.51745860331" id="node_05x11" junction="True" old_x="500.0" old_y="1100.0" type="right_before_left" weight_num="4.0" weight_sum="2.06983441324" x="-1877.18485529" x_displacement_sum="-2377.18485529" y="1576.21309632" y_displacement_sum="476.21309632" />
    <node avg_slowdown_ratio="0.516918646507" id="node_14x11" junction="True" old_x="1400.0" old_y="1100.0" type="right_before_left" weight_num="4.0" weight_sum="2.06767458603" x="3439.81710174" x_displacement_sum="2039.81710174" y="1682.13818883" y_displacement_sum="582.138188827" />
    <node avg_slowdown_ratio="0.514938804897" id="node_14x12" junction="True" old_x="1400.0" old_y="1200.0" type="right_before_left" weight_num="4.0" weight_sum="2.05975521959" x="3293.86458105" x_displacement_sum="1893.86458105" y="2259.20591187" y_displacement_sum="1059.20591187" />
    <node avg_slowdown_ratio="0.513138948885" id="node_15x10" junction="True" old_x="1500.0" old_y="1000.0" type="right_before_left" weight_num="4.0" weight_sum="2.05255579554" x="3862.49494178" x_displacement_sum="2362.49494178" y="1156.70520827" y_displacement_sum="156.705208268" />
    <node avg_slowdown_ratio="0.508999280057" id="node_12x07" junction="True" old_x="1200.0" old_y="700.0" type="right_before_left" weight_num="4.0" weight_sum="2.03599712023" x="2268.74179127" x_displacement_sum="1068.74179127" y="-1021.47921662" y_displacement_sum="-1721.47921662" />
    <node avg_slowdown_ratio="0.505579553635" id="node_11x04" junction="True" old_x="1100.0" old_y="400.0" type="right_before_left" weight_num="4.0" weight_sum="2.02231821454" x="1303.7048353" x_displacement_sum="203.704835303" y="-1864.74144387" y_displacement_sum="-2264.74144387" />
    <node avg_slowdown_ratio="0.50485961123" id="node_12x06" junction="True" old_x="1200.0" old_y="600.0" type="right_before_left" weight_num="4.0" weight_sum="2.01943844492" x="2163.18788949" x_displacement_sum="963.18788949" y="-1475.63645991" y_displacement_sum="-2075.63645991" />
    <node avg_slowdown_ratio="0.504319654428" id="node_11x05" junction="True" old_x="1100.0" old_y="500.0" type="right_before_left" weight_num="4.0" weight_sum="2.01727861771" x="1418.59380409" x_displacement_sum="318.593804093" y="-1864.47695142" y_displacement_sum="-2364.47695142" />
    <node avg_slowdown_ratio="0.502699784018" id="node_05x12" junction="True" old_x="500.0" old_y="1200.0" type="right_before_left" weight_num="4.0" weight_sum="2.01079913607" x="-1635.8192416" x_displacement_sum="-2135.8192416" y="1984.37748749" y_displacement_sum="784.377487485" />
    <node avg_slowdown_ratio="0.5" id="node_10x15" junction="True" old_x="1000.0" old_y="1500.0" type="right_before_left" weight_num="4.0" weight_sum="2.0" x="1045.94261558" x_displacement_sum="45.9426155783" y="3889.25673366" y_displacement_sum="2389.25673366" />
    <node avg_slowdown_ratio="0.499999999997" id="node_14x06" junction="True" old_x="1400.0" old_y="600.0" type="right_before_left" weight_num="4.0" weight_sum="1.99999999999" x="3105.78298594" x_displacement_sum="1705.78298594" y="-1128.56792775" y_displacement_sum="-1728.56792775" />
    <node avg_slowdown_ratio="0.499640028798" id="node_06x09" junction="True" old_x="600.0" old_y="900.0" type="right_before_left" weight_num="4.0" weight_sum="1.99856011519" x="-1714.2488435" x_displacement_sum="-2314.2488435" y="173.766266398" y_displacement_sum="-726.233733602" />
    <node avg_slowdown_ratio="0.499640028795" id="node_14x13" junction="True" old_x="1400.0" old_y="1300.0" type="right_before_left" weight_num="4.0" weight_sum="1.99856011518" x="3125.25261017" x_displacement_sum="1725.25261017" y="2778.58824851" y_displacement_sum="1478.58824851" />
    <node avg_slowdown_ratio="0.498740100792" id="node_08x06" junction="True" old_x="800.0" old_y="600.0" type="right_before_left" weight_num="4.0" weight_sum="1.99496040317" x="-464.26271604" x_displacement_sum="-1264.26271604" y="-1342.34413051" y_displacement_sum="-1942.34413051" />
    <node avg_slowdown_ratio="0.497480201583" id="node_07x14" junction="True" old_x="700.0" old_y="1400.0" type="right_before_left" weight_num="4.0" weight_sum="1.98992080633" x="-638.47753051" x_displacement_sum="-1338.47753051" y="3298.37477236" y_displacement_sum="1898.37477236" />
    <node avg_slowdown_ratio="0.497300215983" id="node_06x07" junction="True" old_x="600.0" old_y="700.0" type="right_before_left" weight_num="4.0" weight_sum="1.98920086393" x="-1357.42791061" x_displacement_sum="-1957.42791061" y="-670.435427" y_displacement_sum="-1370.435427" />
    <node avg_slowdown_ratio="0.497120230382" id="node_08x15" junction="True" old_x="800.0" old_y="1500.0" type="right_before_left" weight_num="4.0" weight_sum="1.98848092153" x="51.492437429" x_displacement_sum="-748.507562571" y="3664.19220715" y_displacement_sum="2164.19220715" />
    <node avg_slowdown_ratio="0.49496040317" id="node_16x11" junction="True" old_x="1600.0" old_y="1100.0" type="right_before_left" weight_num="4.0" weight_sum="1.97984161268" x="3960.40687535" x_displacement_sum="2360.40687535" y="1549.13965339" y_displacement_sum="449.139653387" />
    <node avg_slowdown_ratio="0.493160547158" id="node_10x04" junction="True" old_x="1000.0" old_y="400.0" type="right_before_left" weight_num="4.0" weight_sum="1.97264218863" x="845.253922348" x_displacement_sum="-154.746077652" y="-1904.27380765" y_displacement_sum="-2304.27380765" />
    <node avg_slowdown_ratio="0.49226061915" id="node_05x13" junction="True" old_x="500.0" old_y="1300.0" type="right_before_left" weight_num="4.0" weight_sum="1.9690424766" x="-1268.51103542" x_displacement_sum="-1768.51103542" y="2263.89299989" y_displacement_sum="963.89299989" />
    <node avg_slowdown_ratio="0.487580993523" id="node_13x15" junction="True" old_x="1300.0" old_y="1500.0" type="right_before_left" weight_num="4.0" weight_sum="1.95032397409" x="2301.35486197" x_displacement_sum="1001.35486197" y="3671.33301263" y_displacement_sum="2171.33301263" />
    <node avg_slowdown_ratio="0.486501079915" id="node_07x15" junction="True" old_x="700.0" old_y="1500.0" type="right_before_left" weight_num="4.0" weight_sum="1.94600431966" x="-308.93627301" x_displacement_sum="-1008.93627301" y="3408.58184926" y_displacement_sum="1908.58184926" />
    <node avg_slowdown_ratio="0.486141108712" id="node_09x06" junction="True" old_x="900.0" old_y="600.0" type="right_before_left" weight_num="4.0" weight_sum="1.94456443485" x="62.929592616" x_displacement_sum="-837.070407384" y="-1488.05298261" y_displacement_sum="-2088.05298261" />
    <node avg_slowdown_ratio="0.486141108712" id="node_11x15" junction="True" old_x="1100.0" old_y="1500.0" type="right_before_left" weight_num="4.0" weight_sum="1.94456443485" x="1531.92465413" x_displacement_sum="431.924654132" y="3875.30685625" y_displacement_sum="2375.30685625" />
    <node avg_slowdown_ratio="0.48614110871" id="node_07x07" junction="True" old_x="700.0" old_y="700.0" type="right_before_left" weight_num="4.0" weight_sum="1.94456443484" x="-1090.42447808" x_displacement_sum="-1790.42447808" y="-891.60228088" y_displacement_sum="-1591.60228088" />
    <node avg_slowdown_ratio="0.4843412527" id="node_09x15" junction="True" old_x="900.0" old_y="1500.0" type="right_before_left" weight_num="4.0" weight_sum="1.9373650108" x="560.690789631" x_displacement_sum="-339.309210369" y="3833.91988538" y_displacement_sum="2333.91988538" />
    <node avg_slowdown_ratio="0.48164146868" id="node_13x05" junction="True" old_x="1300.0" old_y="500.0" type="right_before_left" weight_num="4.0" weight_sum="1.92656587472" x="2513.99405567" x_displacement_sum="1213.99405567" y="-1545.74791929" y_displacement_sum="-2045.74791929" />
    <node avg_slowdown_ratio="0.480381569475" id="node_10x14" junction="True" old_x="1000.0" old_y="1400.0" type="right_before_left" weight_num="4.0" weight_sum="1.9215262779" x="1044.24247912" x_displacement_sum="44.2424791206" y="3727.37712039" y_displacement_sum="2327.37712039" />
    <node avg_slowdown_ratio="0.480201583873" id="node_04x07" junction="True" old_x="400.0" old_y="700.0" type="right_before_left" weight_num="4.0" weight_sum="1.92080633549" x="-1498.38782991" x_displacement_sum="-1898.38782991" y="-190.173971541" y_displacement_sum="-890.173971541" />
    <node avg_slowdown_ratio="0.479301655868" id="node_09x05" junction="True" old_x="900.0" old_y="500.0" type="right_before_left" weight_num="4.0" weight_sum="1.91720662347" x="230.230594473" x_displacement_sum="-669.769405527" y="-1764.10750744" y_displacement_sum="-2264.10750744" />
    <node avg_slowdown_ratio="0.47822174226" id="node_12x15" junction="True" old_x="1200.0" old_y="1500.0" type="right_before_left" weight_num="4.0" weight_sum="1.91288696904" x="1869.37772329" x_displacement_sum="669.37772329" y="3816.20423361" y_displacement_sum="2316.20423361" />
    <node avg_slowdown_ratio="0.47660187185" id="node_05x07" junction="True" old_x="500.0" old_y="700.0" type="right_before_left" weight_num="4.0" weight_sum="1.9064074874" x="-1408.40044525" x_displacement_sum="-1908.40044525" y="-436.41857895" y_displacement_sum="-1136.41857895" />
    <node avg_slowdown_ratio="0.475881929445" id="node_08x14" junction="True" old_x="800.0" old_y="1400.0" type="right_before_left" weight_num="4.0" weight_sum="1.90352771778" x="-121.338377532" x_displacement_sum="-921.338377532" y="3515.2878995" y_displacement_sum="2115.2878995" />
    <node avg_slowdown_ratio="0.47516198704" id="node_16x12" junction="True" old_x="1600.0" old_y="1200.0" type="right_before_left" weight_num="4.0" weight_sum="1.90064794816" x="3773.24579876" x_displacement_sum="2173.24579876" y="1860.56225558" y_displacement_sum="660.562255581" />
    <node avg_slowdown_ratio="0.473902087835" id="node_12x14" junction="True" old_x="1200.0" old_y="1400.0" type="right_before_left" weight_num="4.0" weight_sum="1.89560835134" x="2038.30119447" x_displacement_sum="838.301194469" y="3573.97555646" y_displacement_sum="2173.97555646" />
    <node avg_slowdown_ratio="0.473902087832" id="node_13x14" junction="True" old_x="1300.0" old_y="1400.0" type="right_before_left" weight_num="4.0" weight_sum="1.89560835133" x="2481.90477748" x_displacement_sum="1181.90477748" y="3450.03520076" y_displacement_sum="2050.03520076" />
    <node avg_slowdown_ratio="0.472642188628" id="node_13x04" junction="True" old_x="1300.0" old_y="400.0" type="right_before_left" weight_num="4.0" weight_sum="1.89056875451" x="2279.31881956" x_displacement_sum="979.318819563" y="-1566.04637699" y_displacement_sum="-1966.04637699" />
    <node avg_slowdown_ratio="0.47210223182" id="node_05x14" junction="True" old_x="500.0" old_y="1400.0" type="right_before_left" weight_num="4.0" weight_sum="1.88840892728" x="-954.82794639" x_displacement_sum="-1454.82794639" y="2556.10566981" y_displacement_sum="1156.10566981" />
    <node avg_slowdown_ratio="0.47210223182" id="node_06x15" junction="True" old_x="600.0" old_y="1500.0" type="right_before_left" weight_num="4.0" weight_sum="1.88840892728" x="-514.90066177" x_displacement_sum="-1114.90066177" y="3073.00495195" y_displacement_sum="1573.00495195" />
    <node avg_slowdown_ratio="0.468142548597" id="node_04x11" junction="True" old_x="400.0" old_y="1100.0" type="right_before_left" weight_num="4.0" weight_sum="1.87257019439" x="-1799.16062777" x_displacement_sum="-2199.16062777" y="1399.50182498" y_displacement_sum="299.501824981" />
    <node avg_slowdown_ratio="0.467602591793" id="node_15x07" junction="True" old_x="1500.0" old_y="700.0" type="right_before_left" weight_num="4.0" weight_sum="1.87041036717" x="3684.65140204" x_displacement_sum="2184.65140204" y="-525.77077841" y_displacement_sum="-1225.77077841" />