<?xml version='1.0' encoding='UTF-8'?>
<nodes xmlns:xsi="http://www.w3.org/2001/XMLSchema-instance" version="0.27" xsi:noNamespaceSchemaLocation="http://sumo.dlr.de/xsd/edges_file.xsd"><node avg_slowdown_ratio="0.563894888408" id="node_12x12" type="right_before_left" weight_num="4.0" weight_sum="2.25557955363" x="1200.00" y="1200.00" />
    <node avg_slowdown_ratio="0.49838012959" id="node_12x09" type="right_before_left" weight_num="4.0" weight_sum="1.99352051836" x="1200.00" y="900.00" />
    <node avg_slowdown_ratio="0.487041036715" id="node_08x05" type="right_before_left" weight_num="4.0" weight_sum="1.94816414686" x="800.00" y="500.00" />
    <node avg_slowdown_ratio="0.477681785458" id="node_09x09" type="right_before_left" weight_num="4.0" weight_sum="1.91072714183" x="900.00" y="900.00" />
    <node avg_slowdown_ratio="0.466702663788" id="node_12x10" type="right_before_left" weight_num="4.0" weight_sum="1.86681065515" x="1200.00" y="1000.00" />
    <node avg_slowdown_ratio="0.463642908568" id="node_12x06" type="right_before_left" weight_num="4.0" weight_sum="1.85457163427" x="1200.00" y="600.00" />
    <node avg_slowdown_ratio="0.459683225343" id="node_12x11" type="right_before_left" weight_num="4.0" weight_sum="1.83873290137" x="1200.00" y="1100.00" />
    <node avg_slowdown_ratio="0.434845212385" id="node_12x07" type="right_before_left" weight_num="4.0" weight_sum="1.73938084954" x="1200.00" y="700.00" />
    <node avg_slowdown_ratio="0.426025917925" id="node_07x09" type="right_before_left" weight_num="4.0" weight_sum="1.7041036717" x="700.00" y="900.00" />
    <node avg_slowdown_ratio="0.425965922727" id="node_12x05" type="right_before_left" weight_num="3.0" weight_sum="1.27789776818" x="1200.00" y="500.00" />
    <node avg_slowdown_ratio="0.417746580273" id="node_10x12" type="right_before_left" weight_num="4.0" weight_sum="1.67098632109" x="1000.00" y="1200.00" />
    <node avg_slowdown_ratio="0.387149028078" id="node_06x14" type="right_before_left" weight_num="4.0" weight_sum="1.54859611231" x="600.00" y="1400.00" />
    <node avg_slowdown_ratio="0.372390208783" id="node_12x13" type="right_before_left" weight_num="4.0" weight_sum="1.48956083513" x="1200.00" y="1300.00" />
    <node avg_slowdown_ratio="0.364830813533" id="node_04x10" type="right_before_left" weight_num="4.0" weight_sum="1.45932325413" x="400.00" y="1000.00" />
    <node avg_slowdown_ratio="0.359791216703" id="node_13x13" type="right_before_left" weight_num="4.0" weight_sum="1.43916486681" x="1300.00" y="1300.00" />
    <node avg_slowdown_ratio="0.355111591073" id="node_11x05" type="right_before_left" weight_num="4.0" weight_sum="1.42044636429" x="1100.00" y="500.00" />
    <node avg_slowdown_ratio="0.35169186465" id="node_06x05" type="right_before_left" weight_num="4.0" weight_sum="1.4067674586" x="600.00" y="500.00" />
    <node avg_slowdown_ratio="0.350791936645" id="node_12x08" type="right_before_left" weight_num="4.0" weight_sum="1.40316774658" x="1200.00" y="800.00" />
    <node avg_slowdown_ratio="0.347372210222" id="node_08x16" type="right_before_left" weight_num="4.0" weight_sum="1.38948884089" x="800.00" y="1600.00" />
    <node avg_slowdown_ratio="0.342692584593" id="node_15x06" type="right_before_left" weight_num="4.0" weight_sum="1.37077033837" x="1500.00" y="600.00" />
    <node avg_slowdown_ratio="0.339812814975" id="node_04x05" type="right_before_left" weight_num="4.0" weight_sum="1.3592512599" x="400.00" y="500.00" />
    <node avg_slowdown_ratio="0.33585313175" id="node_06x09" type="right_before_left" weight_num="4.0" weight_sum="1.343412527" x="600.00" y="900.00" />
    <node avg_slowdown_ratio="0.334773218142" id="node_17x09" type="right_before_left" weight_num="4.0" weight_sum="1.33909287257" x="1700.00" y="900.00" />
    <node avg_slowdown_ratio="0.333693304538" id="node_04x09" type="right_before_left" weight_num="4.0" weight_sum="1.33477321815" x="400.00" y="900.00" />
    <node avg_slowdown_ratio="0.328653707703" id="node_08x13" type="right_before_left" weight_num="4.0" weight_sum="1.31461483081" x="800.00" y="1300.00" />
    <node avg_slowdown_ratio="0.327573794095" id="node_17x08" type="right_before_left" weight_num="4.0" weight_sum="1.31029517638" x="1700.00" y="800.00" />
    <node avg_slowdown_ratio="0.325773938085" id="node_14x13" type="right_before_left" weight_num="4.0" weight_sum="1.30309575234" x="1400.00" y="1300.00" />
    <node avg_slowdown_ratio="0.320554355653" id="node_07x12" type="right_before_left" weight_num="4.0" weight_sum="1.28221742261" x="700.00" y="1200.00" />
    <node avg_slowdown_ratio="0.31731461483" id="node_17x06" type="right_before_left" weight_num="4.0" weight_sum="1.26925845932" x="1700.00" y="600.00" />
    <node avg_slowdown_ratio="0.316774658027" id="node_08x14" type="right_before_left" weight_num="3.0" weight_sum="0.950323974082" x="800.00" y="1400.00" />
    <node avg_slowdown_ratio="0.315154787617" id="node_11x17" type="right_before_left" weight_num="4.0" weight_sum="1.26061915047" x="1100.00" y="1700.00" />
    <node avg_slowdown_ratio="0.314614830813" id="node_09x10" type="right_before_left" weight_num="4.0" weight_sum="1.25845932325" x="900.00" y="1000.00" />
    <node avg_slowdown_ratio="0.311735061195" id="node_06x12" type="right_before_left" weight_num="4.0" weight_sum="1.24694024478" x="600.00" y="1200.00" />
    <node avg_slowdown_ratio="0.311555075595" id="node_11x04" type="right_before_left" weight_num="4.0" weight_sum="1.24622030238" x="1100.00" y="400.00" />
    <node avg_slowdown_ratio="0.308855291578" id="node_09x12" type="right_before_left" weight_num="4.0" weight_sum="1.23542116631" x="900.00" y="1200.00" />
    <node avg_slowdown_ratio="0.30777537797" id="node_12x04" type="right_before_left" weight_num="4.0" weight_sum="1.23110151188" x="1200.00" y="400.00" />
    <node avg_slowdown_ratio="0.307415406768" id="node_20x20" type="right_before_left" weight_num="2.0" weight_sum="0.614830813535" x="2000.00" y="2000.00" />
<node avg_slowdown_ratio="0.306875449965" id="node_04x12" type="right_before_left" weight_num="4.0" weight_sum="1.22750179986" x="400.00" y="1200.00" />
    <node avg_slowdown_ratio="0.306695464363" id="node_17x12" type="right_before_left" weight_num="4.0" weight_sum="1.22678185745" x="1700.00" y="1200.00" />
    <node avg_slowdown_ratio="0.305795536358" id="node_04x14" type="right_before_left" weight_num="4.0" weight_sum="1.22318214543" x="400.00" y="1400.00" />
    <node avg_slowdown_ratio="0.305735541157" id="node_08x15" type="right_before_left" weight_num="3.0" weight_sum="0.91720662347" x="800.00" y="1500.00" />
    <node avg_slowdown_ratio="0.301655867531" id="node_14x14" type="right_before_left" weight_num="3.0" weight_sum="0.904967602592" x="1400.00" y="1400.00" />
    <node avg_slowdown_ratio="0.300755939525" id="node_17x13" type="right_before_left" weight_num="4.0" weight_sum="1.2030237581" x="1700.00" y="1300.00" />
    <node avg_slowdown_ratio="0.300395968322" id="node_08x12" type="right_before_left" weight_num="4.0" weight_sum="1.20158387329" x="800.00" y="1200.00" />
    <node avg_slowdown_ratio="0.299496040317" id="node_07x05" type="right_before_left" weight_num="3.0" weight_sum="0.898488120951" x="700.00" y="500.00" />
    <node avg_slowdown_ratio="0.299256059515" id="node_13x00" type="right_before_left" weight_num="3.0" weight_sum="0.897768178546" x="1300.00" y="0.00" />
    <node avg_slowdown_ratio="0.297816174706" id="node_04x08" type="right_before_left" weight_num="3.0" weight_sum="0.893448524118" x="400.00" y="800.00" />
    <node avg_slowdown_ratio="0.297696184305" id="node_01x19" type="right_before_left" weight_num="4.0" weight_sum="1.19078473722" x="100.00" y="1900.00" />
    <node avg_slowdown_ratio="0.297696184305" id="node_15x10" type="right_before_left" weight_num="4.0" weight_sum="1.19078473722" x="1500.00" y="1000.00" />
    <node avg_slowdown_ratio="0.297516198705" id="node_11x12" type="right_before_left" weight_num="4.0" weight_sum="1.19006479482" x="1100.00" y="1200.00" />
    <node avg_slowdown_ratio="0.296436285097" id="node_06x13" type="right_before_left" weight_num="4.0" weight_sum="1.18574514039" x="600.00" y="1300.00" />
    <node avg_slowdown_ratio="0.295896328294" id="node_07x14" type="right_before_left" weight_num="3.0" weight_sum="0.887688984881" x="700.00" y="1400.00" />
    <node avg_slowdown_ratio="0.295656347492" id="node_00x14" type="right_before_left" weight_num="3.0" weight_sum="0.886969042477" x="0.00" y="1400.00" />
    <node avg_slowdown_ratio="0.295536357092" id="node_07x10" type="right_before_left" weight_num="4.0" weight_sum="1.18214542837" x="700.00" y="1000.00" />
    <node avg_slowdown_ratio="0.29517638589" id="node_06x10" type="right_before_left" weight_num="4.0" weight_sum="1.18070554356" x="600.00" y="1000.00" />
    <node avg_slowdown_ratio="0.294996400288" id="node_12x16" type="right_before_left" weight_num="4.0" weight_sum="1.17998560115" x="1200.00" y="1600.00" />
    <node avg_slowdown_ratio="0.294936405087" id="node_01x08" type="right_before_left" weight_num="3.0" weight_sum="0.884809215262" x="100.00" y="800.00" />
    <node avg_slowdown_ratio="0.294216462683" id="node_09x08" type="right_before_left" weight_num="3.0" weight_sum="0.88264938805" x="900.00" y="800.00" />
    <node avg_slowdown_ratio="0.294216462683" id="node_10x05" type="right_before_left" weight_num="3.0" weight_sum="0.882649388049" x="1000.00" y="500.00" />
    <node avg_slowdown_ratio="0.293916486682" id="node_13x16" type="right_before_left" weight_num="4.0" weight_sum="1.17566594673" x="1300.00" y="1600.00" />
    <node avg_slowdown_ratio="0.29373650108" id="node_13x04" type="right_before_left" weight_num="3.0" weight_sum="0.88120950324" x="1300.00" y="400.00" />
    <node avg_slowdown_ratio="0.291216702662" id="node_03x12" type="right_before_left" weight_num="4.0" weight_sum="1.16486681065" x="300.00" y="1200.00" />
    <node avg_slowdown_ratio="0.290856731463" id="node_12x14" type="right_before_left" weight_num="4.0" weight_sum="1.16342692585" x="1200.00" y="1400.00" />
    <node avg_slowdown_ratio="0.289596832252" id="node_09x13" type="right_before_left" weight_num="4.0" weight_sum="1.15838732901" x="900.00" y="1300.00" />
    <node avg_slowdown_ratio="0.288696904247" id="node_17x10" type="right_before_left" weight_num="4.0" weight_sum="1.15478761699" x="1700.00" y="1000.00" />
    <node avg_slowdown_ratio="0.287976961843" id="node_08x03" type="right_before_left" weight_num="3.0" weight_sum="0.863930885529" x="800.00" y="300.00" />
    <node avg_slowdown_ratio="0.28749700024" id="node_05x09" type="right_before_left" weight_num="3.0" weight_sum="0.86249100072" x="500.00" y="900.00" />
    <node avg_slowdown_ratio="0.287077033837" id="node_05x14" type="right_before_left" weight_num="4.0" weight_sum="1.14830813535" x="500.00" y="1400.00" />
    <node avg_slowdown_ratio="0.287017038637" id="node_08x09" type="right_before_left" weight_num="3.0" weight_sum="0.861051115911" x="800.00" y="900.00" />
    <node avg_slowdown_ratio="0.287017038637" id="node_11x10" type="right_before_left" weight_num="3.0" weight_sum="0.861051115911" x="1100.00" y="1000.00" />
    <node avg_slowdown_ratio="0.286717062635" id="node_17x07" type="right_before_left" weight_num="4.0" weight_sum="1.14686825054" x="1700.00" y="700.00" />
    <node avg_slowdown_ratio="0.286057115431" id="node_17x11" type="right_before_left" weight_num="3.0" weight_sum="0.858171346292" x="1700.00" y="1100.00" />
    <node avg_slowdown_ratio="0.285817134629" id="node_10x00" type="right_before_left" weight_num="2.0" weight_sum="0.571634269258" x="1000.00" y="0.00" />
    <node avg_slowdown_ratio="0.285577153828" id="node_11x13" type="right_before_left" weight_num="3.0" weight_sum="0.856731461483" x="1100.00" y="1300.00" />
    <node avg_slowdown_ratio="0.285277177825" id="node_11x14" type="right_before_left" weight_num="4.0" weight_sum="1.1411087113" x="1100.00" y="1400.00" />
    <node avg_slowdown_ratio="0.284737221022" id="node_13x18" type="right_before_left" weight_num="4.0" weight_sum="1.13894888409" x="1300.00" y="1800.00" />
    <node avg_slowdown_ratio="0.28419726422" id="node_12x18" type="right_before_left" weight_num="4.0" weight_sum="1.13678905688" x="1200.00" y="1800.00" />
    <node avg_slowdown_ratio="0.284017278617" id="node_17x05" type="right_before_left" weight_num="4.0" weight_sum="1.13606911447" x="1700.00" y="500.00" />
    <node avg_slowdown_ratio="0.283477321815" id="node_06x03" type="right_before_left" weight_num="4.0" weight_sum="1.13390928726" x="600.00" y="300.00" />
    <node avg_slowdown_ratio="0.283477321815" id="node_12x02" type="right_before_left" weight_num="4.0" weight_sum="1.13390928726" x="1200.00" y="200.00" />
    <node avg_slowdown_ratio="0.283177345812" id="node_00x17" type="right_before_left" weight_num="3.0" weight_sum="0.849532037437" x="0.00" y="1700.00" />
    <node avg_slowdown_ratio="0.282457403408" id="node_04x06" type="right_before_left" weight_num="3.0" weight_sum="0.847372210223" x="400.00" y="600.00" />
    <node avg_slowdown_ratio="0.282217422606" id="node_13x20" type="right_before_left" weight_num="2.0" weight_sum="0.564434845212" x="1300.00" y="2000.00" />
    <node avg_slowdown_ratio="0.282217422606" id="node_14x15" type="right_before_left" weight_num="3.0" weight_sum="0.846652267818" x="1400.00" y="1500.00" />
    <node avg_slowdown_ratio="0.282037437005" id="node_09x07" type="right_before_left" weight_num="4.0" weight_sum="1.12814974802" x="900.00" y="700.00" />
    <node avg_slowdown_ratio="0.281857451405" id="node_05x18" type="right_before_left" weight_num="4.0" weight_sum="1.12742980562" x="500.00" y="1800.00" />
    <node avg_slowdown_ratio="0.281677465803" id="node_04x04" type="right_before_left" weight_num="4.0" weight_sum="1.12670986321" x="400.00" y="400.00" />
    <node avg_slowdown_ratio="0.280957523398" id="node_06x07" type="right_before_left" weight_num="4.0" weight_sum="1.12383009359" x="600.00" y="700.00" />
    <node avg_slowdown_ratio="0.280057595393" id="node_13x12" type="right_before_left" weight_num="2.0" weight_sum="0.560115190785" x="1300.00" y="1200.00" />
    <node avg_slowdown_ratio="0.280057595392" id="node_19x04" type="right_before_left" weight_num="3.0" weight_sum="0.840172786177" x="1900.00" y="400.00" />
    <node avg_slowdown_ratio="0.279577633789" id="node_20x19" type="right_before_left" weight_num="3.0" weight_sum="0.838732901368" x="2000.00" y="1900.00" />
    <node avg_slowdown_ratio="0.27951763859" id="node_14x11" type="right_before_left" weight_num="4.0" weight_sum="1.11807055436" x="1400.00" y="1100.00" />
    <node avg_slowdown_ratio="0.278617710583" id="node_09x11" type="right_before_left" weight_num="3.0" weight_sum="0.83585313175" x="900.00" y="1100.00" />
    <node avg_slowdown_ratio="0.278377729782" id="node_05x10" type="right_before_left" weight_num="3.0" weight_sum="0.835133189345" x="500.00" y="1000.00" />
    <node avg_slowdown_ratio="0.278377729782" id="node_08x17" type="right_before_left" weight_num="3.0" weight_sum="0.835133189345" x="800.00" y="1700.00" />
    <node avg_slowdown_ratio="0.277357811375" id="node_15x04" type="right_before_left" weight_num="4.0" weight_sum="1.1094312455" x="1500.00" y="400.00" />
    <node avg_slowdown_ratio="0.276997840173" id="node_10x19" type="right_before_left" weight_num="4.0" weight_sum="1.10799136069" x="1000.00" y="1900.00" />
    <node avg_slowdown_ratio="0.276817854573" id="node_09x17" type="right_before_left" weight_num="4.0" weight_sum="1.10727141829" x="900.00" y="1700.00" />
    <node avg_slowdown_ratio="0.276277897768" id="node_04x17" type="right_before_left" weight_num="4.0" weight_sum="1.10511159107" x="400.00" y="1700.00" />
    <node avg_slowdown_ratio="0.276097912167" id="node_14x05" type="right_before_left" weight_num="2.0" weight_sum="0.552195824334" x="1400.00" y="500.00" />
    <node avg_slowdown_ratio="0.275557955362" id="node_01x09" type="right_before_left" weight_num="4.0" weight_sum="1.10223182145" x="100.00" y="900.00" />
    <node avg_slowdown_ratio="0.275377969763" id="node_00x11" type="right_before_left" weight_num="2.0" weight_sum="0.550755939525" x="0.00" y="1100.00" />
    <node avg_slowdown_ratio="0.275197984163" id="node_11x08" type="right_before_left" weight_num="4.0" weight_sum="1.10079193665" x="1100.00" y="800.00" />
    <node avg_slowdown_ratio="0.27501799856" id="node_12x15" type="right_before_left" weight_num="3.0" weight_sum="0.82505399568" x="1200.00" y="1500.00" />
    <node avg_slowdown_ratio="0.27483801296" id="node_16x10" type="right_before_left" weight_num="4.0" weight_sum="1.09935205184" x="1600.00" y="1000.00" />
    <node avg_slowdown_ratio="0.274778017759" id="node_00x13" type="right_before_left" weight_num="3.0" weight_sum="0.824334053276" x="0.00" y="1300.00" />
    <node avg_slowdown_ratio="0.274478041758" id="node_04x11" type="right_before_left" weight_num="4.0" weight_sum="1.09791216703" x="400.00" y="1100.00" />
    <node avg_slowdown_ratio="0.274058075354" id="node_10x09" type="right_before_left" weight_num="3.0" weight_sum="0.822174226062" x="1000.00" y="900.00" />
    <node avg_slowdown_ratio="0.273938084953" id="node_20x05" type="right_before_left" weight_num="2.0" weight_sum="0.547876169906" x="2000.00" y="500.00" />
    <node avg_slowdown_ratio="0.273938084952" id="node_09x15" type="right_before_left" weight_num="4.0" weight_sum="1.09575233981" x="900.00" y="1500.00" />
    <node avg_slowdown_ratio="0.273758099353" id="node_11x16" type="right_before_left" weight_num="4.0" weight_sum="1.09503239741" x="1100.00" y="1600.00" />
    <node avg_slowdown_ratio="0.273578113751" id="node_07x13" type="right_before_left" weight_num="3.0" weight_sum="0.820734341254" x="700.00" y="1300.00" />
    <node avg_slowdown_ratio="0.27357811375" id="node_03x11" type="right_before_left" weight_num="4.0" weight_sum="1.094312455" x="300.00" y="1100.00" />
    <node avg_slowdown_ratio="0.273218142547" id="node_03x18" type="right_before_left" weight_num="4.0" weight_sum="1.09287257019" x="300.00" y="1800.00" />
    <node avg_slowdown_ratio="0.273218142547" id="node_15x07" type="right_before_left" weight_num="4.0" weight_sum="1.09287257019" x="1500.00" y="700.00" />
    <node avg_slowdown_ratio="0.272138228943" id="node_07x11" type="right_before_left" weight_num="4.0" weight_sum="1.08855291577" x="700.00" y="1100.00" />
    <node avg_slowdown_ratio="0.27195824334" id="node_02x10" type="right_before_left" weight_num="4.0" weight_sum="1.08783297336" x="200.00" y="1000.00" />
    <node avg_slowdown_ratio="0.27195824334" id="node_16x06" type="right_before_left" weight_num="4.0" weight_sum="1.08783297336" x="1600.00" y="600.00" />
    <node avg_slowdown_ratio="0.271418286537" id="node_08x20" type="right_before_left" weight_num="2.0" weight_sum="0.542836573074" x="800.00" y="2000.00" />
    <node avg_slowdown_ratio="0.271238300935" id="node_05x15" type="right_before_left" weight_num="4.0" weight_sum="1.08495320374" x="500.00" y="1500.00" />
    <node avg_slowdown_ratio="0.270458363331" id="node_01x07" type="right_before_left" weight_num="3.0" weight_sum="0.811375089993" x="100.00" y="700.00" />
    <node avg_slowdown_ratio="0.270458363331" id="node_04x20" type="right_before_left" weight_num="3.0" weight_sum="0.811375089993" x="400.00" y="2000.00" />
    <node avg_slowdown_ratio="0.269978401727" id="node_00x07" type="right_before_left" weight_num="2.0" weight_sum="0.539956803455" x="0.00" y="700.00" />
    <node avg_slowdown_ratio="0.269618430525" id="node_03x10" type="right_before_left" weight_num="4.0" weight_sum="1.0784737221" x="300.00" y="1000.00" />
    <node avg_slowdown_ratio="0.269258459323" id="node_12x20" type="right_before_left" weight_num="2.0" weight_sum="0.538516918646" x="1200.00" y="2000.00" />
    <node avg_slowdown_ratio="0.269258459322" id="node_15x16" type="right_before_left" weight_num="4.0" weight_sum="1.07703383729" x="1500.00" y="1600.00" />
    <node avg_slowdown_ratio="0.269078473722" id="node_14x02" type="right_before_left" weight_num="4.0" weight_sum="1.07631389489" x="1400.00" y="200.00" />
    <node avg_slowdown_ratio="0.269018478522" id="node_19x20" type="right_before_left" weight_num="3.0" weight_sum="0.807055435565" x="1900.00" y="2000.00" />
    <node avg_slowdown_ratio="0.268178545716" id="node_08x00" type="right_before_left" weight_num="2.0" weight_sum="0.536357091432" x="800.00" y="0.00" />
    <node avg_slowdown_ratio="0.267998560115" id="node_13x02" type="right_before_left" weight_num="4.0" weight_sum="1.07199424046" x="1300.00" y="200.00" />
    <node avg_slowdown_ratio="0.267998560115" id="node_14x19" type="right_before_left" weight_num="4.0" weight_sum="1.07199424046" x="1400.00" y="1900.00" />
    <node avg_slowdown_ratio="0.266738660907" id="node_00x18" type="right_before_left" weight_num="2.0" weight_sum="0.533477321814" x="0.00" y="1800.00" />
    <node avg_slowdown_ratio="0.266738660907" id="node_18x12" type="right_before_left" weight_num="4.0" weight_sum="1.06695464363" x="1800.00" y="1200.00" />
    <node avg_slowdown_ratio="0.266618670506" id="node_13x14" type="right_before_left" weight_num="3.0" weight_sum="0.799856011519" x="1300.00" y="1400.00" />
    <node avg_slowdown_ratio="0.266618670506" id="node_20x18" type="right_before_left" weight_num="3.0" weight_sum="0.799856011519" x="2000.00" y="1800.00" />
    <node avg_slowdown_ratio="0.266378689705" id="node_03x13" type="right_before_left" weight_num="3.0" weight_sum="0.799136069114" x="300.00" y="1300.00" />
    <node avg_slowdown_ratio="0.266378689705" id="node_14x06" type="right_before_left" weight_num="3.0" weight_sum="0.799136069114" x="1400.00" y="600.00" />
    <node avg_slowdown_ratio="0.266378689705" id="node_18x01" type="right_before_left" weight_num="2.0" weight_sum="0.53275737941" x="1800.00" y="100.00" />
    <node avg_slowdown_ratio="0.266378689705" id="node_20x00" type="right_before_left" weight_num="2.0" weight_sum="0.532757379409" x="2000.00" y="0.00" />
    <node avg_slowdown_ratio="0.266198704103" id="node_03x14" type="right_before_left" weight_num="4.0" weight_sum="1.06479481641" x="300.00" y="1400.00" />
    <node avg_slowdown_ratio="0.265898728102" id="node_11x03" type="right_before_left" weight_num="3.0" weight_sum="0.797696184306" x="1100.00" y="300.00" />
    <node avg_slowdown_ratio="0.265418766499" id="node_04x13" type="right_before_left" weight_num="3.0" weight_sum="0.796256299496" x="400.00" y="1300.00" />
    <node avg_slowdown_ratio="0.265418766499" id="node_05x05" type="right_before_left" weight_num="3.0" weight_sum="0.796256299496" x="500.00" y="500.00" />
    <node avg_slowdown_ratio="0.265418766499" id="node_07x08" type="right_before_left" weight_num="3.0" weight_sum="0.796256299497" x="700.00" y="800.00" />
    <node avg_slowdown_ratio="0.265418766498" id="node_08x07" type="right_before_left" weight_num="3.0" weight_sum="0.796256299495" x="800.00" y="700.00" />
    <node avg_slowdown_ratio="0.265298776098" id="node_02x00" type="right_before_left" weight_num="2.0" weight_sum="0.530597552196" x="200.00" y="0.00" />
    <node avg_slowdown_ratio="0.265298776098" id="node_04x15" type="right_before_left" weight_num="4.0" weight_sum="1.06119510439" x="400.00" y="1500.00" />
    <node avg_slowdown_ratio="0.265178785697" id="node_00x04" type="right_before_left" weight_num="3.0" weight_sum="0.795536357091" x="0.00" y="400.00" />
    <node avg_slowdown_ratio="0.265118790497" id="node_06x15" type="right_before_left" weight_num="4.0" weight_sum="1.06047516199" x="600.00" y="1500.00" />
    <node avg_slowdown_ratio="0.264938804896" id="node_15x05" type="right_before_left" weight_num="3.0" weight_sum="0.794816414687" x="1500.00" y="500.00" />
    <node avg_slowdown_ratio="0.264938804895" id="node_03x09" type="right_before_left" weight_num="2.0" weight_sum="0.529877609791" x="300.00" y="900.00" />
    <node avg_slowdown_ratio="0.264578833693" id="node_11x02" type="right_before_left" weight_num="4.0" weight_sum="1.05831533477" x="1100.00" y="200.00" />
    <node avg_slowdown_ratio="0.264218862491" id="node_02x18" type="right_before_left" weight_num="2.0" weight_sum="0.528437724982" x="200.00" y="1800.00" />
    <node avg_slowdown_ratio="0.264218862491" id="node_11x18" type="right_before_left" weight_num="3.0" weight_sum="0.792656587473" x="1100.00" y="1800.00" />
    <node avg_slowdown_ratio="0.26403887689" id="node_11x11" type="right_before_left" weight_num="4.0" weight_sum="1.05615550756" x="1100.00" y="1100.00" />
    <node avg_slowdown_ratio="0.263978881689" id="node_08x11" type="right_before_left" weight_num="3.0" weight_sum="0.791936645068" x="800.00" y="1100.00" />
    <node avg_slowdown_ratio="0.263858891288" id="node_16x13" type="right_before_left" weight_num="4.0" weight_sum="1.05543556515" x="1600.00" y="1300.00" />
    <node avg_slowdown_ratio="0.263498920087" id="node_02x08" type="right_before_left" weight_num="4.0" weight_sum="1.05399568035" x="200.00" y="800.00" />
    <node avg_slowdown_ratio="0.263318934485" id="node_02x19" type="right_before_left" weight_num="4.0" weight_sum="1.05327573794" x="200.00" y="1900.00" />
    <node avg_slowdown_ratio="0.263318934485" id="node_10x16" type="right_before_left" weight_num="4.0" weight_sum="1.05327573794" x="1000.00" y="1600.00" />
    <node avg_slowdown_ratio="0.263018958483" id="node_13x19" type="right_before_left" weight_num="3.0" weight_sum="0.78905687545" x="1300.00" y="1900.00" />
    <node avg_slowdown_ratio="0.26259899208" id="node_19x08" type="right_before_left" weight_num="4.0" weight_sum="1.05039596832" x="1900.00" y="800.00" />
    <node avg_slowdown_ratio="0.26241900648" id="node_09x16" type="right_before_left" weight_num="4.0" weight_sum="1.04967602592" x="900.00" y="1600.00" />
    <node avg_slowdown_ratio="0.26241900648" id="node_15x08" type="right_before_left" weight_num="4.0" weight_sum="1.04967602592" x="1500.00" y="800.00" />
    <node avg_slowdown_ratio="0.262239020878" id="node_06x02" type="right_before_left" weight_num="4.0" weight_sum="1.04895608351" x="600.00" y="200.00" />
    <node avg_slowdown_ratio="0.262059035277" id="node_09x20" type="right_before_left" weight_num="3.0" weight_sum="0.786177105832" x="900.00" y="2000.00" />
    <node avg_slowdown_ratio="0.262059035277" id="node_20x10" type="right_before_left" weight_num="2.0" weight_sum="0.524118070554" x="2000.00" y="1000.00" />
    <node avg_slowdown_ratio="0.261819054476" id="node_18x20" type="right_before_left" weight_num="3.0" weight_sum="0.785457163427" x="1800.00" y="2000.00" />
    <node avg_slowdown_ratio="0.261579073674" id="node_20x14" type="right_before_left" weight_num="3.0" weight_sum="0.784737221022" x="2000.00" y="1400.00" />
    <node avg_slowdown_ratio="0.261519078472" id="node_01x11" type="right_before_left" weight_num="4.0" weight_sum="1.04607631389" x="100.00" y="1100.00" />
    <node avg_slowdown_ratio="0.261519078472" id="node_17x14" type="right_before_left" weight_num="4.0" weight_sum="1.04607631389" x="1700.00" y="1400.00" />
    <node avg_slowdown_ratio="0.261339092872" id="node_01x14" type="right_before_left" weight_num="3.0" weight_sum="0.784017278617" x="100.00" y="1400.00" />
    <node avg_slowdown_ratio="0.261159107273" id="node_15x02" type="right_before_left" weight_num="4.0" weight_sum="1.04463642909" x="1500.00" y="200.00" />
    <node avg_slowdown_ratio="0.261159107273" id="node_16x03" type="right_before_left" weight_num="4.0" weight_sum="1.04463642909" x="1600.00" y="300.00" />
    <node avg_slowdown_ratio="0.26079913607" id="node_17x19" type="right_before_left" weight_num="4.0" weight_sum="1.04319654428" x="1700.00" y="1900.00" />
    <node avg_slowdown_ratio="0.260619150468" id="node_02x11" type="right_before_left" weight_num="4.0" weight_sum="1.04247660187" x="200.00" y="1100.00" />
    <node avg_slowdown_ratio="0.260619150468" id="node_17x20" type="right_before_left" weight_num="3.0" weight_sum="0.781857451405" x="1700.00" y="2000.00" />
    <node avg_slowdown_ratio="0.260379169667" id="node_08x04" type="right_before_left" weight_num="3.0" weight_sum="0.781137509" x="800.00" y="400.00" />
    <node avg_slowdown_ratio="0.260379169667" id="node_09x05" type="right_before_left" weight_num="3.0" weight_sum="0.781137509" x="900.00" y="500.00" />
    <node avg_slowdown_ratio="0.260139188865" id="node_16x08" type="right_before_left" weight_num="3.0" weight_sum="0.780417566595" x="1600.00" y="800.00" />
    <node avg_slowdown_ratio="0.259899208063" id="node_08x18" type="right_before_left" weight_num="3.0" weight_sum="0.77969762419" x="800.00" y="1800.00" />
    <node avg_slowdown_ratio="0.259899208063" id="node_20x11" type="right_before_left" weight_num="2.0" weight_sum="0.519798416127" x="2000.00" y="1100.00" />
    <node avg_slowdown_ratio="0.259899208062" id="node_14x09" type="right_before_left" weight_num="4.0" weight_sum="1.03959683225" x="1400.00" y="900.00" />
    <node avg_slowdown_ratio="0.259719222463" id="node_03x06" type="right_before_left" weight_num="4.0" weight_sum="1.03887688985" x="300.00" y="600.00" />
    <node avg_slowdown_ratio="0.259719222463" id="node_15x09" type="right_before_left" weight_num="4.0" weight_sum="1.03887688985" x="1500.00" y="900.00" />
    <node avg_slowdown_ratio="0.259659227262" id="node_17x15" type="right_before_left" weight_num="3.0" weight_sum="0.778977681786" x="1700.00" y="1500.00" />
    <node avg_slowdown_ratio="0.259539236861" id="node_06x00" type="right_before_left" weight_num="2.0" weight_sum="0.519078473722" x="600.00" y="0.00" />
    <node avg_slowdown_ratio="0.25941924646" id="node_10x17" type="right_before_left" weight_num="3.0" weight_sum="0.778257739381" x="1000.00" y="1700.00" />