<?xml version="1.0" encoding="UTF-8"?>

<!-- generated on 02/06/17 18:10:22 by SUMO duarouter Version 0.27.1
<?xml version="1.0" encoding="UTF-8"?>

<configuration xmlns:xsi="http://www.w3.org/2001/XMLSchema-instance" xsi:noNamespaceSchemaLocation="http://sumo.dlr.de/xsd/duarouterConfiguration.xsd">

    <input>
        <net-file value="C:\Users\zs633\capstone\z_test_random_removal\0c_new_map\test.net.xml"/>
        <trip-files value="C:\Users\zs633\capstone\z_test_random_removal\1_trips\test.trips.xml"/>
    </input>

    <output>
        <output-file value="C:\Users\zs633\capstone\z_test_random_removal\2_routes\test.rou.xml"/>
    </output>

    <processing>
        <ignore-errors value="true"/>
    </processing>

    <time>
        <begin value="0"/>
        <end value="3600"/>
    </time>

    <report>
        <no-warnings value="true"/>
        <no-step-log value="true"/>
    </report>

</configuration>
-->

<routes xmlns:xsi="http://www.w3.org/2001/XMLSchema-instance" xsi:noNamespaceSchemaLocation="http://sumo.dlr.de/xsd/routes_file.xsd">
    <vType id="passenger" vClass="passenger"/>
    <vehicle id="0" type="passenger" depart="0.00">
        <route edges="yedge_16x19 yedge_16x17 xedge_08x32 yedge_17x15 yedge_17x13 yedge_17x11"/>
    </vehicle>
    <vehicle id="1" type="passenger" depart="0.65">
        <route edges="yedge_10x29 xedge_14x20 yedge_11x27 xedge_13x22 yedge_12x25 yedge_12x23 xedge_11x24 yedge_13x21 xedge_10x26 yedge_14x19 xedge_09x28 yedge_15x18 yedge_15x20 yedge_15x22 xedge_12x30 xedge_12x32 yedge_17x24 yedge_17x26 yedge_17x28 yedge_17x30 yedge_17x32 yedge_17x34 xedge_18x33"/>
    </vehicle>
    <vehicle id="2" type="passenger" depart="1.30">
        <route edges="yedge_16x09 xedge_04x31 yedge_15x08 xedge_05x29 yedge_14x10 xedge_06x27 xedge_06x25 xedge_06x23 yedge_11x12 xedge_07x21 yedge_10x14 xedge_08x19 yedge_09x16 xedge_09x17 yedge_08x18 yedge_08x20 xedge_11x15 yedge_07x21 xedge_10x14"/>
    </vehicle>
    <vehicle id="3" type="passenger" depart="1.95">
        <route edges="xedge_19x29 yedge_14x38 yedge_14x39 xedge_19x28 yedge_15x37 yedge_15x35 yedge_15x33 yedge_15x31 xedge_15x29 yedge_14x30 xedge_16x27 xedge_16x25 yedge_12x32 yedge_12x34 xedge_18x24"/>
    </vehicle>
    <vehicle id="4" type="passenger" depart="2.60">
        <route edges="yedge_03x08 yedge_03x10 yedge_03x12 xedge_07x06 yedge_04x13 xedge_06x08 xedge_06x10 xedge_06x12 xedge_06x14 xedge_06x16 xedge_06x18 yedge_10x12 yedge_10x14 xedge_08x19 yedge_09x16 xedge_09x17 yedge_08x18 yedge_08x20 xedge_11x16 yedge_09x22 yedge_09x24 yedge_09x26 xedge_14x18 xedge_14x20 yedge_11x28 yedge_11x30 xedge_16x21 xedge_16x19 xedge_16x17"/>
    </vehicle>
    <vehicle id="6" type="passenger" depart="3.90">
        <route edges="yedge_17x17 yedge_17x15 xedge_07x33 xedge_07x31 yedge_15x14 xedge_08x29 xedge_08x27 xedge_08x25 yedge_12x15 xedge_07x23 xedge_07x21 yedge_10x14 xedge_08x19 yedge_09x16 xedge_09x17 yedge_08x18 yedge_08x20 xedge_11x15 xedge_11x13 xedge_11x11 yedge_05x22"/>
    </vehicle>
    <vehicle id="7" type="passenger" depart="4.55">
        <route edges="xedge_17x06 yedge_04x33 yedge_04x31 xedge_15x08 yedge_05x29 xedge_14x10 xedge_14x12 xedge_14x14 xedge_14x16 xedge_14x18 xedge_14x20 yedge_11x27 xedge_13x22 yedge_12x25 yedge_12x23 xedge_11x24 yedge_13x21 xedge_10x26 yedge_14x19 xedge_09x28 yedge_15x18 yedge_15x20 yedge_15x22 xedge_12x30 xedge_12x32 yedge_17x24 yedge_17x26 xedge_14x34 xedge_14x36 yedge_19x27 xedge_13x38 yedge_20x25 xedge_12x39 xedge_12x38 yedge_20x24 xedge_13x39 yedge_19x26"/>
    </vehicle>
    <vehicle id="8" type="passenger" depart="5.20">
        <route edges="yedge_17x12 xedge_07x33 xedge_07x31 yedge_15x14 xedge_08x29 xedge_08x27 xedge_08x25 yedge_12x15 xedge_07x23 yedge_11x13 xedge_06x21 xedge_06x19 xedge_06x17 xedge_06x15 xedge_06x13 xedge_06x11 yedge_05x11 yedge_05x09"/>
    </vehicle>
    <vehicle id="9" type="passenger" depart="5.85">
        <route edges="xedge_00x03 xedge_00x01 yedge_00x00 xedge_01x00 yedge_01x02 yedge_01x04 xedge_03x02 xedge_03x04 yedge_03x06 yedge_03x08 yedge_03x10 yedge_03x12 xedge_07x06 yedge_04x13 xedge_06x08 xedge_06x10 xedge_06x12 xedge_06x14 xedge_06x16 xedge_06x18 yedge_10x12 xedge_07x20 xedge_07x22 yedge_12x14 xedge_08x24 xedge_08x26 xedge_08x28 yedge_15x16 xedge_09x29 yedge_14x17"/>
    </vehicle>
    <vehicle id="10" type="passenger" depart="6.50">
        <route edges="yedge_15x33 yedge_15x31 xedge_15x30 xedge_15x32 yedge_17x29 yedge_17x27 yedge_17x25 xedge_12x33 xedge_12x31 yedge_15x23 yedge_15x21 yedge_15x19 xedge_09x29 yedge_14x18 xedge_10x27 yedge_13x20 yedge_13x22 xedge_12x26 yedge_14x23"/>
    </vehicle>
    <vehicle id="11" type="passenger" depart="7.15">
        <route edges="xedge_00x18 yedge_10x00 xedge_01x19 xedge_01x17 yedge_08x02 yedge_08x04 yedge_08x06 yedge_08x08 yedge_08x10 xedge_06x15 xedge_06x13 yedge_06x12 xedge_07x11 xedge_07x09 xedge_07x07 yedge_03x13 yedge_03x11 yedge_03x09 yedge_03x07 xedge_03x06 yedge_04x05 yedge_04x03 xedge_01x07 yedge_03x01 xedge_00x05 yedge_02x00 yedge_02x02"/>
    </vehicle>
    <vehicle id="12" type="passenger" depart="7.80">
        <route edges="yedge_13x12 xedge_07x25 yedge_12x14 xedge_08x24 yedge_13x16 yedge_13x18 xedge_10x25 yedge_12x20"/>
    </vehicle>
    <vehicle id="13" type="passenger" depart="8.45">
        <route edges="yedge_15x14 yedge_15x16 yedge_15x18 yedge_15x20 yedge_15x22 xedge_12x30 xedge_12x32 yedge_17x24 xedge_13x34 yedge_18x25"/>
    </vehicle>
    <vehicle id="14" type="passenger" depart="9.10">
        <route edges="xedge_07x07 yedge_03x13 xedge_06x05 yedge_02x12 xedge_07x04 xedge_07x06 yedge_04x13 yedge_04x11 xedge_05x08 yedge_05x09 yedge_05x07 xedge_03x10 xedge_03x12 yedge_07x05 xedge_02x13 yedge_06x03 yedge_06x01 xedge_00x11 yedge_05x00"/>
    </vehicle>
    <vehicle id="15" type="passenger" depart="9.75">
        <route edges="yedge_20x08 yedge_20x10 xedge_06x39 yedge_19x11 xedge_05x37 xedge_05x35 xedge_05x33 xedge_05x31 xedge_05x29 yedge_14x10 xedge_06x27 xedge_06x25 xedge_06x23 xedge_06x21 xedge_06x19 xedge_06x17 xedge_06x15 xedge_06x13 yedge_06x12 xedge_07x11 xedge_07x09 xedge_07x07 yedge_03x14 xedge_08x05 yedge_02x16 xedge_09x03 xedge_09x01 yedge_00x18 yedge_00x20"/>
    </vehicle>
    <vehicle id="16" type="passenger" depart="10.40">
        <route edges="xedge_19x19 yedge_09x37 yedge_09x35 xedge_17x18 xedge_17x20 yedge_11x33 yedge_11x31 yedge_11x29 yedge_11x27 xedge_13x22 yedge_12x25 yedge_12x23 xedge_11x24 yedge_13x21 xedge_10x26 yedge_14x19 yedge_14x17 xedge_08x28 yedge_15x15 yedge_15x13"/>
    </vehicle>
    <vehicle id="17" type="passenger" depart="11.05">
        <route edges="yedge_06x22 xedge_12x11 yedge_05x23 yedge_05x21 xedge_10x10 xedge_10x12 xedge_10x14 yedge_08x19 xedge_09x16 yedge_09x17 xedge_08x18 yedge_10x15 yedge_10x13 xedge_06x20 xedge_06x22 xedge_06x24 xedge_06x26 yedge_14x11 xedge_05x28 yedge_15x09 yedge_15x07 xedge_03x30 yedge_16x06"/>
    </vehicle>
    <vehicle id="18" type="passenger" depart="11.70">
        <route edges="yedge_08x36 yedge_08x38 xedge_20x16 yedge_09x39 yedge_09x37 yedge_09x35 xedge_17x18 xedge_17x20 yedge_11x33 yedge_11x31 yedge_11x29 yedge_11x27 xedge_13x22 yedge_12x25 yedge_12x23 xedge_11x24 yedge_13x21 yedge_13x19 yedge_13x17 xedge_08x25 yedge_12x15 xedge_07x23 yedge_11x14 xedge_08x22 xedge_08x24"/>
    </vehicle>
    <vehicle id="19" type="passenger" depart="12.35">
        <route edges="yedge_20x30 xedge_16x39 yedge_19x31 yedge_19x29 xedge_14x37 yedge_18x27 yedge_18x25 xedge_12x35 xedge_12x33 xedge_12x31 yedge_15x23 yedge_15x21 yedge_15x19 yedge_15x17 xedge_08x29 xedge_08x27 xedge_08x25 yedge_12x15 xedge_07x23 yedge_11x13 xedge_06x21 xedge_06x19 xedge_06x17 xedge_06x15 xedge_06x13 yedge_06x12 xedge_07x11 xedge_07x09 xedge_07x07"/>
    </vehicle>
    <vehicle id="20" type="passenger" depart="13.00">
        <route edges="yedge_13x20 xedge_11x25 yedge_12x21 xedge_10x24 xedge_10x26 yedge_14x19 yedge_14x17 xedge_08x28 yedge_15x15 xedge_07x30 xedge_07x32 yedge_17x13 yedge_17x11 xedge_05x34 xedge_05x36 yedge_19x09 yedge_19x07 yedge_19x05 xedge_02x37 yedge_18x03 xedge_01x35 yedge_17x02"/>
    </vehicle>
    <vehicle id="21" type="passenger" depart="13.65">
        <route edges="xedge_14x35 yedge_17x27 yedge_17x25 xedge_12x33 xedge_12x31 yedge_15x23 yedge_15x21 yedge_15x19 yedge_15x17 xedge_08x29 xedge_08x27 xedge_08x25 yedge_12x15 xedge_07x23 yedge_11x13 xedge_06x22 yedge_12x11 xedge_05x23 yedge_11x09 xedge_04x21 yedge_10x07 xedge_03x20"/>
    </vehicle>
    <vehicle id="22" type="passenger" depart="14.30">
        <route edges="yedge_04x19 xedge_09x08 yedge_05x18 xedge_10x10 xedge_10x12 xedge_10x14 yedge_08x19 xedge_09x16 yedge_09x17 xedge_08x18 yedge_10x15 xedge_07x20 xedge_07x22 yedge_12x14 xedge_08x24 xedge_08x26 yedge_14x16 xedge_09x28 yedge_15x18 yedge_15x20 yedge_15x22 xedge_12x30 xedge_12x32 yedge_17x24 yedge_17x26 yedge_17x28 yedge_17x30 yedge_17x32 xedge_17x33 yedge_16x34"/>
    </vehicle>
    <vehicle id="23" type="passenger" depart="14.95">
        <route edges="xedge_13x06 yedge_04x26 yedge_04x28 xedge_15x08 yedge_05x29 yedge_05x27 yedge_05x25 yedge_05x23 yedge_05x21 xedge_10x10 xedge_10x12 xedge_10x14 yedge_08x19 xedge_09x16 yedge_09x17 xedge_08x18 yedge_10x15 yedge_10x13 xedge_06x19 xedge_06x17 xedge_06x15 xedge_06x13 yedge_06x12 xedge_07x11 xedge_07x09 xedge_07x07 yedge_03x13 yedge_03x11 yedge_03x09 yedge_03x07 xedge_03x05 xedge_03x03 yedge_01x05 yedge_01x03 xedge_01x01 yedge_00x02 yedge_00x04"/>
    </vehicle>
    <vehicle id="25" type="passenger" depart="16.25">
        <route edges="xedge_01x29 yedge_14x01 yedge_14x00 xedge_01x28 yedge_15x01 xedge_00x30 yedge_16x00 xedge_01x32 xedge_01x34 yedge_18x02 xedge_02x36 yedge_19x04 yedge_19x06 yedge_19x08 yedge_19x10 xedge_06x38 yedge_20x12 yedge_20x14 yedge_20x16 xedge_09x39 xedge_09x37 yedge_18x18 xedge_10x36 yedge_19x20 xedge_11x37 yedge_18x22 yedge_18x24 yedge_18x26 yedge_18x28 yedge_18x30 xedge_16x35 yedge_17x32 yedge_17x34 xedge_18x33 xedge_18x31 yedge_15x36 yedge_15x38 yedge_15x39 yedge_15x37"/>
    </vehicle>
    <vehicle id="26" type="passenger" depart="16.90">
        <route edges="yedge_13x16 yedge_13x18 xedge_10x26 yedge_14x19 yedge_14x17 xedge_08x28 yedge_15x15 xedge_07x30 xedge_07x32 yedge_17x14 xedge_08x33 yedge_16x16"/>
    </vehicle>
    <vehicle id="27" type="passenger" depart="17.55">
        <route edges="xedge_16x38 yedge_20x31 xedge_15x39 yedge_19x29 xedge_14x37 yedge_18x27 yedge_18x25 xedge_12x35 xedge_12x33 xedge_12x31 yedge_15x23 yedge_15x21 yedge_15x19 yedge_15x17 xedge_08x29 xedge_08x27 xedge_08x25 yedge_12x15 xedge_07x23 yedge_11x13 xedge_06x21 xedge_06x19 yedge_09x11 xedge_05x17 yedge_08x09 xedge_04x16"/>
    </vehicle>
    <vehicle id="28" type="passenger" depart="18.20">
        <route edges="xedge_08x26 yedge_14x16 xedge_09x28 yedge_15x17 xedge_08x29 xedge_08x27 xedge_08x25 yedge_12x15 xedge_07x23 yedge_11x13 xedge_06x21 xedge_06x19 yedge_09x11 xedge_05x17 yedge_08x09 yedge_08x07 yedge_08x05 yedge_08x03 xedge_01x16"/>
    </vehicle>
    <vehicle id="29" type="passenger" depart="18.85">
        <route edges="yedge_15x23 yedge_15x21 yedge_15x19 yedge_15x17 xedge_08x29 xedge_08x27 xedge_08x25 yedge_12x15 xedge_07x23 yedge_11x13 xedge_06x21 xedge_06x19 yedge_09x11 xedge_05x17 yedge_08x09 yedge_08x07 yedge_08x05 xedge_02x15 xedge_02x13 yedge_06x03 yedge_06x01 xedge_00x12 xedge_00x14 yedge_08x00"/>
    </vehicle>
    <vehicle id="30" type="passenger" depart="19.50">
        <route edges="xedge_07x33 xedge_07x31 yedge_15x14 xedge_08x29 xedge_08x27 xedge_08x25 yedge_12x15 xedge_07x23 yedge_11x13 xedge_06x21 xedge_06x19 xedge_06x17 xedge_06x15 xedge_06x13 yedge_06x12"/>
    </vehicle>
    <vehicle id="31" type="passenger" depart="20.15">
        <route edges="yedge_05x22 xedge_12x10 yedge_06x23 yedge_06x21 xedge_10x12 xedge_10x14 yedge_08x19 xedge_09x16 yedge_09x17 xedge_08x18 yedge_10x15 yedge_10x13 xedge_06x20 xedge_06x22 xedge_06x24 xedge_06x26 yedge_14x11 xedge_05x28 xedge_05x30 yedge_16x09 xedge_04x31 yedge_15x08"/>
    </vehicle>
    <vehicle id="32" type="passenger" depart="20.80">
        <route edges="yedge_19x00 xedge_01x38 yedge_20x02 xedge_02x39 xedge_02x37 yedge_18x03 xedge_01x35 yedge_17x01 xedge_00x33 xedge_00x31 yedge_15x00 xedge_01x29 yedge_14x01"/>
    </vehicle>
    <vehicle id="33" type="passenger" depart="21.45">
        <route edges="xedge_15x31 yedge_15x30 yedge_15x32 xedge_17x30 xedge_17x32 yedge_17x33 yedge_17x31 yedge_17x29 yedge_17x27 yedge_17x25 xedge_12x34 yedge_18x23 xedge_11x35"/>
    </vehicle>
    <vehicle id="34" type="passenger" depart="22.10">
        <route edges="xedge_10x37 yedge_18x19 yedge_18x17 yedge_18x15 yedge_18x14 yedge_18x16 yedge_18x18 xedge_10x36 yedge_19x20 xedge_11x37 yedge_18x22 yedge_18x24 yedge_18x26 xedge_14x35 yedge_17x28 xedge_15x33 xedge_15x31 xedge_15x29 yedge_14x29 xedge_14x27"/>
    </vehicle>
    <vehicle id="36" type="passenger" depart="23.40">
        <route edges="xedge_05x31 xedge_05x29 xedge_05x27 xedge_05x25 xedge_05x23 xedge_05x21 xedge_05x19 xedge_05x17"/>
    </vehicle>
    <vehicle id="37" type="passenger" depart="24.05">
        <route edges="yedge_06x01 xedge_00x12 xedge_00x14 yedge_08x00 yedge_08x02 yedge_08x04 yedge_08x06 yedge_08x08 yedge_08x10 xedge_06x16 xedge_06x18 yedge_10x12 yedge_10x14 xedge_08x19 yedge_09x16 xedge_09x17 yedge_08x18 yedge_08x20 xedge_11x16"/>
    </vehicle>
    <vehicle id="38" type="passenger" depart="24.70">
        <route edges="yedge_12x05 yedge_12x03 xedge_01x24 yedge_13x01 xedge_00x25 xedge_00x23 xedge_00x21 yedge_10x00 yedge_10x02 yedge_10x04 yedge_10x06 yedge_10x08 xedge_05x19 yedge_09x10 xedge_06x18 yedge_10x12 yedge_10x14 yedge_10x16 yedge_10x18"/>
    </vehicle>
    <vehicle id="39" type="passenger" depart="25.35">
        <route edges="yedge_13x01 xedge_00x25 xedge_00x23 xedge_00x21 yedge_10x00 yedge_10x02 yedge_10x04 yedge_10x06 yedge_10x08 xedge_05x19 yedge_09x10 xedge_06x18 yedge_10x12 xedge_07x20 xedge_07x22 yedge_12x14 xedge_08x24 xedge_08x26 yedge_14x16 xedge_09x28 yedge_15x18 yedge_15x20 yedge_15x22 xedge_12x30 xedge_12x32 yedge_17x24 yedge_17x26 yedge_17x28 yedge_17x30 yedge_17x32 yedge_17x34 yedge_17x36"/>
    </vehicle>
    <vehicle id="40" type="passenger" depart="26.00">
        <route edges="xedge_00x33 yedge_16x00 xedge_01x32 xedge_01x34 yedge_18x02 xedge_02x36 yedge_19x04 yedge_19x06 yedge_19x08 yedge_19x10 xedge_06x37 xedge_06x35 yedge_17x12 xedge_07x33 xedge_07x31 yedge_15x14 yedge_15x16 xedge_09x29 yedge_14x18 xedge_10x27 yedge_13x20 xedge_11x25 yedge_12x22 yedge_12x24 xedge_13x23 yedge_11x26 yedge_11x28 yedge_11x30 yedge_11x32 xedge_17x21 xedge_17x19"/>
    </vehicle>
    <vehicle id="41" type="passenger" depart="26.65">
        <route edges="xedge_09x13 yedge_06x18 xedge_10x12 xedge_10x14 yedge_08x19 xedge_09x16 yedge_09x17 xedge_08x18 yedge_10x15 yedge_10x13 xedge_06x19 yedge_09x11 xedge_05x17 yedge_08x09"/>
    </vehicle>
    <vehicle id="42" type="passenger" depart="27.30">
        <route edges="xedge_05x25 yedge_12x10 xedge_06x23 yedge_11x12 xedge_07x22 yedge_12x14 xedge_08x24 yedge_13x16 yedge_13x18 yedge_13x20 xedge_11x25 yedge_12x22 yedge_12x24 xedge_13x23 yedge_11x26 yedge_11x28 yedge_11x30 xedge_16x21"/>
    </vehicle>
    <vehicle id="43" type="passenger" depart="27.95">
        <route edges="xedge_16x08 yedge_05x31 yedge_05x29 yedge_05x27 yedge_05x25 yedge_05x23 yedge_05x21 xedge_10x10 xedge_10x12 xedge_10x14 yedge_08x19 xedge_09x16 yedge_09x17 xedge_08x18 yedge_10x15 yedge_10x13 xedge_06x20 xedge_06x22 xedge_06x24 xedge_06x26 yedge_14x11 xedge_05x27"/>
    </vehicle>
    <vehicle id="44" type="passenger" depart="28.60">
        <route edges="yedge_04x20 xedge_11x08 yedge_05x21 xedge_10x10 xedge_10x12 xedge_10x14 yedge_08x19 xedge_09x16 yedge_09x17 xedge_08x18 yedge_10x15 yedge_10x13 xedge_06x19 xedge_06x17 xedge_06x15 xedge_06x13 yedge_06x12 xedge_07x11 xedge_07x09 yedge_04x13"/>
    </vehicle>
    <vehicle id="45" type="passenger" depart="29.25">
        <route edges="xedge_11x09 yedge_04x21 xedge_10x08 xedge_10x10 xedge_10x12 xedge_10x14 yedge_08x19 xedge_09x16 yedge_09x17 xedge_08x18 yedge_10x15 xedge_07x20 xedge_07x22 yedge_12x14 xedge_08x24 xedge_08x26 yedge_14x16 xedge_09x28 yedge_15x18 yedge_15x20 yedge_15x22 xedge_12x30 xedge_12x32 yedge_17x24 yedge_17x26 xedge_14x34 xedge_14x36 yedge_19x27 xedge_13x38"/>
    </vehicle>
    <vehicle id="46" type="passenger" depart="29.90">
        <route edges="xedge_16x24 xedge_16x26 yedge_14x31 xedge_15x28 yedge_15x30 yedge_15x32 yedge_15x34 xedge_18x30"/>
    </vehicle>
    <vehicle id="47" type="passenger" depart="30.55">
        <route edges="xedge_08x23 yedge_11x15 xedge_07x21 yedge_10x14 xedge_08x19 yedge_09x16 xedge_09x17 yedge_08x17 xedge_08x15 xedge_08x14 yedge_08x16 xedge_09x16 yedge_09x17 xedge_08x18"/>
    </vehicle>
    <vehicle id="48" type="passenger" depart="31.20">
        <route edges="xedge_15x13 yedge_06x29 xedge_14x12 xedge_14x14 xedge_14x16 xedge_14x18 xedge_14x20 yedge_11x27 xedge_13x22 yedge_12x25 yedge_12x23 xedge_11x24 yedge_13x21 xedge_10x26 yedge_14x19 yedge_14x17 xedge_08x28 yedge_15x15 xedge_07x30 xedge_07x32 yedge_17x13 yedge_17x11 xedge_05x34 xedge_05x36 yedge_19x09 yedge_19x07 yedge_19x05 xedge_02x37 yedge_18x03 xedge_01x35 yedge_17x01 xedge_00x33 xedge_00x31 yedge_15x00"/>
    </vehicle>
    <vehicle id="49" type="passenger" depart="31.85">
        <route edges="yedge_08x02 yedge_08x04 yedge_08x06 yedge_08x08 yedge_08x10 xedge_06x15 xedge_06x13 yedge_06x12 xedge_07x11 xedge_07x09 xedge_07x07 yedge_03x13 yedge_03x11 yedge_03x09 yedge_03x07 xedge_03x06 yedge_04x05 yedge_04x03 xedge_01x07 yedge_03x01 xedge_00x06"/>
    </vehicle>
    <vehicle id="50" type="passenger" depart="32.50">
        <route edges="xedge_08x23 yedge_11x15 xedge_07x22 yedge_12x14 xedge_08x24 xedge_08x26 yedge_14x16 xedge_09x28 yedge_15x18 yedge_15x20 yedge_15x22 xedge_12x30 xedge_12x32 yedge_17x24 yedge_17x26 yedge_17x28 xedge_15x33 xedge_15x31 xedge_15x29 yedge_14x29 xedge_14x27 xedge_14x26 yedge_14x28"/>
    </vehicle>
    <vehicle id="51" type="passenger" depart="33.15">
        <route edges="yedge_07x28 xedge_15x14 yedge_08x29 xedge_14x16 yedge_09x27 yedge_09x25 yedge_09x23 xedge_11x17 yedge_08x21 yedge_08x19 xedge_09x16 yedge_09x17 xedge_08x18 yedge_10x15 yedge_10x13 xedge_06x19 yedge_09x11 xedge_05x17 yedge_08x09 yedge_08x07 yedge_08x05 xedge_02x15 xedge_02x13 yedge_06x03 yedge_06x01"/>
    </vehicle>
    <vehicle id="52" type="passenger" depart="33.80">
        <route edges="yedge_08x37 yedge_08x35 xedge_17x15 xedge_17x13 xedge_17x11 yedge_05x33 yedge_05x31 yedge_05x29 yedge_05x27 yedge_05x25 yedge_05x23 yedge_05x21 xedge_10x10 xedge_10x12 xedge_10x14 yedge_08x19 xedge_09x16 yedge_09x17 xedge_08x18 yedge_10x15 yedge_10x13 xedge_06x19 yedge_09x11 xedge_05x18 yedge_10x09 yedge_10x07 xedge_03x19 xedge_03x17"/>
    </vehicle>
    <vehicle id="53" type="passenger" depart="34.45">
        <route edges="yedge_04x13 xedge_06x08 xedge_06x10 yedge_06x12 xedge_07x11 xedge_07x09 xedge_07x07 yedge_03x13 yedge_03x11 yedge_03x09 yedge_03x07 xedge_03x05 xedge_03x03 yedge_01x05 yedge_01x03 xedge_01x01 yedge_00x01"/>
    </vehicle>
    <vehicle id="54" type="passenger" depart="35.10">
        <route edges="xedge_13x11 yedge_05x25 yedge_05x23 yedge_05x21 xedge_10x10 xedge_10x12 xedge_10x14 yedge_08x19 xedge_09x16 yedge_09x17 xedge_08x18 yedge_10x15 yedge_10x13 xedge_06x19 xedge_06x17 xedge_06x15 xedge_06x13 yedge_06x12 xedge_07x11 xedge_07x09 xedge_07x07 yedge_03x13 yedge_03x11 yedge_03x09 yedge_03x07 xedge_03x06 yedge_04x05 yedge_04x03 xedge_01x07 yedge_03x01 xedge_00x05"/>
    </vehicle>
    <vehicle id="55" type="passenger" depart="35.75">
        <route edges="xedge_04x29 yedge_14x07 xedge_03x28 yedge_15x06 yedge_15x08 xedge_05x29 xedge_05x27 xedge_05x25 xedge_05x23 xedge_05x21 xedge_05x19 xedge_05x17 yedge_08x09 yedge_08x07 xedge_03x16"/>
    </vehicle>
    <vehicle id="56" type="passenger" depart="36.40">
        <route edges="yedge_01x17 xedge_08x02 xedge_08x04 yedge_03x15 xedge_07x06 yedge_04x13 xedge_06x08 xedge_06x10 xedge_06x12 xedge_06x14 xedge_06x16 xedge_06x18 yedge_10x12 yedge_10x14 xedge_08x19 yedge_09x16 xedge_09x17 yedge_08x18 yedge_08x20 xedge_11x15 yedge_07x21 xedge_10x14 yedge_08x19"/>
    </vehicle>
    <vehicle id="57" type="passenger" depart="37.05">
        <route edges="xedge_03x26 xedge_03x28 yedge_15x06 yedge_15x08 xedge_05x29 yedge_14x10 xedge_06x27 xedge_06x25 xedge_06x23 yedge_11x12 xedge_07x21 yedge_10x14 xedge_08x19 yedge_09x16 xedge_09x17 yedge_08x18 yedge_08x20 xedge_11x15 xedge_11x13 xedge_11x11 yedge_05x22 yedge_05x24 yedge_05x26 yedge_05x28 xedge_15x09 yedge_04x29 yedge_04x27 xedge_13x07 xedge_13x05 yedge_02x25 xedge_12x04 yedge_03x24"/>
    </vehicle>
    <vehicle id="58" type="passenger" depart="37.70">
        <route edges="yedge_05x33 xedge_16x09 yedge_04x32 xedge_17x08 xedge_17x10 yedge_06x34 xedge_18x12 yedge_07x36"/>
    </vehicle>
    <vehicle id="59" type="passenger" depart="38.35">
        <route edges="xedge_00x36 yedge_19x00 xedge_01x38 yedge_20x02 xedge_02x39 yedge_19x04 yedge_19x06 yedge_19x08 xedge_05x37 xedge_05x35 xedge_05x33 yedge_16x09 yedge_16x07"/>
    </vehicle>
    <vehicle id="60" type="passenger" depart="39.00">
        <route edges="xedge_14x11 yedge_05x28 xedge_15x10 yedge_06x29 xedge_14x12 xedge_14x14 xedge_14x16 xedge_14x18 xedge_14x20 yedge_11x27 xedge_13x22 yedge_12x25 yedge_12x23 xedge_11x24 yedge_13x21 xedge_10x26 yedge_14x19 xedge_09x28 yedge_15x18 yedge_15x20 xedge_11x30 xedge_11x32 xedge_11x34 xedge_11x36 yedge_19x21 xedge_10x37 yedge_18x19"/>
    </vehicle>
    <vehicle id="62" type="passenger" depart="40.30">
        <route edges="xedge_03x07 yedge_03x06 yedge_03x08 yedge_03x10 yedge_03x12 xedge_07x06 yedge_04x13 xedge_06x08 xedge_06x10 xedge_06x12 xedge_06x14 xedge_06x16 xedge_06x18 xedge_06x20 xedge_06x22 xedge_06x24 xedge_06x26 yedge_14x11 xedge_05x27"/>
    </vehicle>
    <vehicle id="63" type="passenger" depart="40.95">
        <route edges="yedge_14x39 xedge_19x28 yedge_15x37 yedge_15x35 xedge_17x30 xedge_17x32 yedge_17x33 yedge_17x31 yedge_17x29 yedge_17x27 yedge_17x25 xedge_12x34 yedge_18x23 xedge_11x36 yedge_19x21 xedge_10x37 yedge_18x19 xedge_09x36 xedge_09x38 yedge_20x17 yedge_20x15 yedge_20x13 xedge_06x39 yedge_19x11 yedge_19x09"/>
    </vehicle>
    <vehicle id="64" type="passenger" depart="41.60">
        <route edges="yedge_12x32 yedge_12x34 xedge_18x24 yedge_13x35 xedge_17x26 xedge_17x28 xedge_17x30 xedge_17x32 yedge_17x33 yedge_17x31 yedge_17x29 yedge_17x27 yedge_17x25 xedge_12x33 xedge_12x31 yedge_15x23 yedge_15x21 yedge_15x19 yedge_15x17 xedge_08x29 xedge_08x27 xedge_08x25 yedge_12x15 xedge_07x23 xedge_07x21 yedge_10x14 xedge_08x19 yedge_09x16"/>
    </vehicle>
    <vehicle id="65" type="passenger" depart="42.25">
        <route edges="yedge_06x16 yedge_06x18 xedge_10x12 xedge_10x14 yedge_08x19 xedge_09x16 yedge_09x17 xedge_08x18 yedge_10x15"/>
    </vehicle>
    <vehicle id="66" type="passenger" depart="42.90">
        <route edges="yedge_17x08 xedge_05x33 xedge_05x31 xedge_05x29 yedge_14x10 xedge_06x27 xedge_06x25 xedge_06x23 yedge_11x12 xedge_07x21 yedge_10x14 xedge_08x19 yedge_09x16 xedge_09x17 yedge_08x18 yedge_08x20 xedge_11x15 xedge_11x13 xedge_11x11 yedge_05x22 yedge_05x24 yedge_05x26 yedge_05x28 yedge_05x30 xedge_16x09 yedge_04x32 xedge_17x08 yedge_05x33"/>
    </vehicle>
    <vehicle id="67" type="passenger" depart="43.55">
        <route edges="xedge_03x11 yedge_05x06 yedge_05x08 yedge_05x10 xedge_06x10 xedge_06x12 xedge_06x14 xedge_06x16 xedge_06x18 yedge_10x12 yedge_10x14 xedge_08x19 yedge_09x16 xedge_09x17 yedge_08x18 yedge_08x20 xedge_11x15 xedge_11x13 xedge_11x11 yedge_05x22 yedge_05x24 yedge_05x26 xedge_14x10 xedge_14x12 xedge_14x14"/>
    </vehicle>
    <vehicle id="68" type="passenger" depart="44.20">
        <route edges="yedge_19x29 xedge_14x37 yedge_18x27 yedge_18x25 yedge_18x23 xedge_11x36 yedge_19x21 xedge_10x37 xedge_10x35 xedge_10x33 yedge_16x19 yedge_16x17 xedge_08x32 yedge_17x15 yedge_17x13 yedge_17x11 xedge_05x33 xedge_05x31 xedge_05x29 yedge_14x10"/>
    </vehicle>
    <vehicle id="69" type="passenger" depart="44.85">
        <route edges="yedge_08x05 xedge_02x15 xedge_02x13 yedge_06x03 yedge_06x01 xedge_00x12"/>
    </vehicle>
    <vehicle id="70" type="passenger" depart="45.50">
        <route edges="yedge_04x31 xedge_15x08 yedge_05x29 yedge_05x27 yedge_05x25 yedge_05x23 yedge_05x21 xedge_10x09 yedge_04x20"/>
    </vehicle>
    <vehicle id="71" type="passenger" depart="46.15">
        <route edges="xedge_10x15 yedge_07x20 xedge_11x14 yedge_08x21 yedge_08x19 xedge_09x16 yedge_09x17 xedge_08x18 yedge_10x15 yedge_10x13 xedge_06x19 yedge_09x11 xedge_05x17 yedge_08x09 yedge_08x07 yedge_08x05 yedge_08x03 yedge_08x01 xedge_00x15 xedge_00x13 yedge_06x00 yedge_06x02"/>
    </vehicle>
    <vehicle id="72" type="passenger" depart="46.80">
        <route edges="yedge_15x06 yedge_15x08 xedge_05x30 xedge_05x32 yedge_17x10 yedge_17x12 yedge_17x14 yedge_17x16 xedge_09x33 yedge_16x18 xedge_10x32 xedge_10x34 xedge_10x36 yedge_19x20 xedge_11x37 yedge_18x22 yedge_18x24 yedge_18x26 yedge_18x28 xedge_15x36 yedge_19x29 xedge_14x37"/>
    </vehicle>
    <vehicle id="73" type="passenger" depart="47.45">
        <route edges="xedge_03x13 xedge_03x11 yedge_05x06 yedge_05x08 yedge_05x10 xedge_06x10 xedge_06x12 xedge_06x14 xedge_06x16 xedge_06x18 yedge_10x12 xedge_07x20 xedge_07x22 yedge_12x14 xedge_08x24 yedge_13x16 yedge_13x18 yedge_13x20 xedge_11x25 yedge_12x21 xedge_10x24"/>
    </vehicle>
    <vehicle id="74" type="passenger" depart="48.10">
        <route edges="xedge_02x13 yedge_06x03 yedge_06x01 xedge_00x12 xedge_00x14 yedge_08x00 xedge_01x16 xedge_01x18 yedge_10x01 xedge_00x20 xedge_00x22 xedge_00x24 yedge_13x00 xedge_01x26 xedge_01x28"/>
    </vehicle>
    <vehicle id="75" type="passenger" depart="48.75">
        <route edges="xedge_06x11 yedge_05x11 yedge_05x09 yedge_05x07 xedge_03x10 xedge_03x12 yedge_07x05 xedge_02x14 yedge_08x03 xedge_01x16 xedge_01x18 yedge_10x01 xedge_00x20 xedge_00x22 xedge_00x24 yedge_13x00 xedge_01x25"/>
    </vehicle>
    <vehicle id="76" type="passenger" depart="49.40">
        <route edges="xedge_16x18 xedge_16x20 yedge_11x31 yedge_11x29 yedge_11x27 xedge_13x22 yedge_12x25 yedge_12x23 xedge_11x24 yedge_13x21 xedge_10x26 yedge_14x19 yedge_14x17 xedge_08x28 yedge_15x15 xedge_07x30 xedge_07x32 yedge_17x13 yedge_17x11 xedge_05x34 xedge_05x36 yedge_19x09 yedge_19x07 yedge_19x05 xedge_02x37 yedge_18x03 xedge_01x35 xedge_01x33 yedge_16x02 xedge_02x32"/>
    </vehicle>
    <vehicle id="77" type="passenger" depart="50.05">
        <route edges="yedge_17x37 yedge_17x35 yedge_17x33 yedge_17x31 yedge_17x29 yedge_17x27 yedge_17x25 xedge_12x33 xedge_12x31 yedge_15x23 yedge_15x21 yedge_15x19 yedge_15x17 xedge_08x29 xedge_08x27 xedge_08x25 yedge_12x15 xedge_07x23 yedge_11x13 xedge_06x21 xedge_06x19 xedge_06x17 xedge_06x15 xedge_06x13 yedge_06x12 xedge_07x11 xedge_07x09 xedge_07x07 yedge_03x14 xedge_08x05 xedge_08x03 yedge_01x15 yedge_01x13 yedge_01x11"/>
    </vehicle>
    <vehicle id="78" type="passenger" depart="50.70">
        <route edges="xedge_07x16 xedge_07x18 yedge_10x14 xedge_08x19 yedge_09x16 xedge_09x17 yedge_08x18 yedge_08x20 xedge_11x16 yedge_09x22 yedge_09x24 yedge_09x26 xedge_14x18 xedge_14x20 yedge_11x28 yedge_11x30 yedge_11x32 xedge_17x21 yedge_10x34 yedge_10x35 xedge_17x20 yedge_11x33 yedge_11x31"/>
    </vehicle>
    <vehicle id="79" type="passenger" depart="51.35">
        <route edges="xedge_03x00 xedge_03x02 xedge_03x04 yedge_03x06 yedge_03x08 yedge_03x10 yedge_03x12 xedge_07x06 yedge_04x13 xedge_06x08 xedge_06x10 xedge_06x12 xedge_06x14 xedge_06x16 xedge_06x18 yedge_10x12 yedge_10x14 xedge_08x19 yedge_09x16 xedge_09x17 yedge_08x18 yedge_08x20 xedge_11x15 xedge_11x13 xedge_11x11 yedge_05x22 yedge_05x24 yedge_05x26 yedge_05x28 xedge_15x09 xedge_15x07"/>
    </vehicle>
    <vehicle id="80" type="passenger" depart="52.00">
        <route edges="yedge_12x33 xedge_16x24 xedge_16x26 yedge_14x31 xedge_15x28 xedge_15x30 xedge_15x32 yedge_17x29 yedge_17x27 yedge_17x25 xedge_12x33 xedge_12x31 yedge_15x23 yedge_15x21 yedge_15x19 xedge_09x29 yedge_14x18 xedge_10x27 yedge_13x20 xedge_11x25 yedge_12x22 yedge_12x24 xedge_13x23 yedge_11x26 xedge_14x21 xedge_14x19 yedge_09x27 yedge_09x25"/>
    </vehicle>
    <vehicle id="81" type="passenger" depart="52.65">
        <route edges="yedge_05x01 xedge_00x10 yedge_06x00 yedge_06x02 xedge_02x12 xedge_02x14 yedge_08x04 yedge_08x06 yedge_08x08 xedge_05x16 xedge_05x18 xedge_05x20 xedge_05x22 xedge_05x24 xedge_05x26 xedge_05x28 xedge_05x30 xedge_05x32"/>
    </vehicle>
    <vehicle id="82" type="passenger" depart="53.30">
        <route edges="yedge_18x18 xedge_10x36 yedge_19x20 xedge_11x37 xedge_11x35 xedge_11x33 xedge_11x31 yedge_15x21 yedge_15x19 xedge_09x29 yedge_14x18 xedge_10x27 yedge_13x20 xedge_11x25 yedge_12x22 yedge_12x24 xedge_13x23 yedge_11x26 xedge_14x21 xedge_14x19 xedge_14x17 xedge_14x15 xedge_14x13 yedge_06x27 xedge_13x11 yedge_05x26"/>
    </vehicle>
    <vehicle id="83" type="passenger" depart="53.95">
        <route edges="yedge_13x16 yedge_13x18 xedge_10x26 yedge_14x20"/>
    </vehicle>
    <vehicle id="84" type="passenger" depart="54.60">
        <route edges="yedge_15x19 yedge_15x17 xedge_08x29 xedge_08x27 xedge_08x25 yedge_12x15 xedge_07x23 xedge_07x21 yedge_10x14 xedge_08x19 yedge_09x16 xedge_09x17 yedge_08x18 xedge_10x15 xedge_10x13 xedge_10x11 yedge_05x20"/>
    </vehicle>
    <vehicle id="85" type="passenger" depart="55.25">
        <route edges="xedge_16x39 yedge_19x31 yedge_19x29 xedge_14x37 yedge_18x27 yedge_18x25 yedge_18x23 xedge_11x36 yedge_19x21 xedge_10x37 yedge_18x19 xedge_09x36 xedge_09x38 yedge_20x17 yedge_20x15 yedge_20x13 xedge_06x39 yedge_19x11 yedge_19x09 yedge_19x07 yedge_19x05 xedge_02x38"/>
    </vehicle>
    <vehicle id="87" type="passenger" depart="56.55">