<?xml version='1.0' encoding='UTF-8'?>
<nodes xmlns:xsi="http://www.w3.org/2001/XMLSchema-instance" version="0.27" xsi:noNamespaceSchemaLocation="http://sumo.dlr.de/xsd/edges_file.xsd"><node avg_slowdown_ratio="0.996160307177" id="2751313823" junction="True" old_x="8150.99" old_y="5819.53" type="priority" weight_num="3.0" weight_sum="2.98848092153" x="8256.4581433" x_displacement_sum="105.468143305" y="5910.96421799" y_displacement_sum="91.4342179904" />
    <node avg_slowdown_ratio="0.994480441567" id="261763340" junction="True" old_x="7441.37" old_y="6569.24" type="priority" weight_num="3.0" weight_sum="2.9834413247" x="7492.74644106" x_displacement_sum="51.3764410603" y="6376.49629799" y_displacement_sum="-192.743702009" />
    <node avg_slowdown_ratio="0.994301139773" fixed="True" id="cluster_cluster_261668689_261668912_cluster_261668691_261668913" junction="True" old_x="9007.19" old_y="9070.16" tl="gneJ284" type="traffic_light" weight_num="4.0" weight_sum="3.97720455909" x="9007.19" y="9070.16" />
    <node avg_slowdown_ratio="0.99400119976" fixed="True" id="811037812" old_x="8963.86" old_y="9025.85" type="priority" weight_num="1.0" weight_sum="0.99400119976" x="8963.86" y="9025.85" />
    <node avg_slowdown_ratio="0.99370050396" fixed="True" id="263016163" junction="True" old_x="11827.89" old_y="4711.66" type="priority" weight_num="2.0" weight_sum="1.98740100792" x="11827.89" y="4711.66" />
    <node avg_slowdown_ratio="0.993520518359" fixed="True" id="263016110" old_x="11872.3" old_y="4818.64" type="priority" weight_num="1.0" weight_sum="0.993520518359" x="11872.3" y="4818.64" />
    <node avg_slowdown_ratio="0.99256059515" id="261763330" junction="True" old_x="7423.51" old_y="6553.2" type="priority" weight_num="3.0" weight_sum="2.97768178545" x="7308.45121294" x_displacement_sum="-115.058787061" y="6246.80937388" y_displacement_sum="-306.390626118" />
    <node avg_slowdown_ratio="0.992201559688" fixed="True" id="262111806" old_x="9071.45" old_y="9012.23" type="priority" weight_num="1.0" weight_sum="0.992201559688" x="9071.45" y="9012.23" />
    <node avg_slowdown_ratio="0.99208063355" fixed="True" id="263016162" junction="True" old_x="11744.26" old_y="4540.26" type="priority" weight_num="2.0" weight_sum="1.9841612671" x="11744.26" y="4540.26" />
    <node avg_slowdown_ratio="0.99064074874" fixed="True" id="263016247" junction="True" old_x="11641.91" old_y="4324.79" type="priority" weight_num="2.0" weight_sum="1.98128149748" x="11641.91" y="4324.79" />
    <node avg_slowdown_ratio="0.990401919616" fixed="True" id="2927613057" old_x="8774.36" old_y="11645.26" type="priority" weight_num="1.0" weight_sum="0.990401919616" x="8774.36" y="11645.26" />
    <node avg_slowdown_ratio="0.990401919616" fixed="True" id="3162585229" old_x="9244.23" old_y="11090.36" type="priority" weight_num="1.0" weight_sum="0.990401919616" x="9244.23" y="11090.36" />
    <node avg_slowdown_ratio="0.99040076794" id="1788613992" junction="True" old_x="8063.15" old_y="9479.84" type="priority" weight_num="3.0" weight_sum="2.97120230382" x="8181.4568974" x_displacement_sum="118.306897396" y="9659.10566357" y_displacement_sum="179.265663566" />
    <node avg_slowdown_ratio="0.990099009901" fixed="True" id="1038949808" old_x="6976.99" old_y="7183.1" type="priority" weight_num="1.0" weight_sum="0.990099009901" x="6976.99" y="7183.1" />
    <node avg_slowdown_ratio="0.9900990099" fixed="True" id="2861666272" junction="True" old_x="6984.3" old_y="7174.02" type="priority" weight_num="2.0" weight_sum="1.9801980198" x="6984.3" y="7174.02" />
    <node avg_slowdown_ratio="0.990009260105" fixed="True" id="261765377" junction="True" old_x="7012.6" old_y="7138.3" type="priority" weight_num="2.0" weight_sum="1.98001852021" x="7012.6" y="7138.3" />
    <node avg_slowdown_ratio="0.989920806335" fixed="True" id="1788613985" old_x="8083.69" old_y="9423.96" type="priority" weight_num="1.0" weight_sum="0.989920806335" x="8083.69" y="9423.96" />
    <node avg_slowdown_ratio="0.989920806335" fixed="True" id="318346884#9-AddedOffRampNode" old_x="11833.96" old_y="4726.28" type="priority" weight_num="1.0" weight_sum="0.989920806335" x="11833.96" y="4726.28" />
    <node avg_slowdown_ratio="0.989560835135" fixed="True" id="263022604" junction="True" old_x="12001.84" old_y="5151.14" type="priority" weight_num="2.0" weight_sum="1.97912167027" x="12001.84" y="5151.14" />
    <node avg_slowdown_ratio="0.989560835133" fixed="True" id="263017729" old_x="11900.89" old_y="4926.41" type="priority" weight_num="1.0" weight_sum="0.989560835133" x="11900.89" y="4926.41" />
    <node avg_slowdown_ratio="0.989202159568" fixed="True" id="3791348659" old_x="9229.96" old_y="11995.14" type="priority" weight_num="1.0" weight_sum="0.989202159568" x="9229.96" y="11995.14" />
    <node avg_slowdown_ratio="0.988660907125" fixed="True" id="263022694" junction="True" old_x="11213.65" old_y="5578.7" type="priority" weight_num="2.0" weight_sum="1.97732181425" x="11213.65" y="5578.7" />
    <node avg_slowdown_ratio="0.988602279544" fixed="True" id="300217922" old_x="9040.54" old_y="9109.36" type="priority" weight_num="1.0" weight_sum="0.988602279544" x="9040.54" y="9109.36" />
    <node avg_slowdown_ratio="0.98800239952" fixed="True" id="1065139769" old_x="6305.31" old_y="9172.54" type="priority" weight_num="1.0" weight_sum="0.98800239952" x="6305.31" y="9172.54" />
    <node avg_slowdown_ratio="0.98800239952" fixed="True" id="3926859711" old_x="9353.63" old_y="11175.86" type="priority" weight_num="1.0" weight_sum="0.98800239952" x="9353.63" y="11175.86" />
    <node avg_slowdown_ratio="0.987985029605" fixed="True" id="2861666265" junction="True" old_x="7009.66" old_y="7171.52" type="priority" weight_num="2.0" weight_sum="1.97597005921" x="7009.66" y="7171.52" />
    <node avg_slowdown_ratio="0.987402519496" fixed="True" id="418671520#2-AddedOnRampNode" old_x="9156.84" old_y="9162.67" type="zipper" weight_num="1.0" weight_sum="0.987402519496" x="9156.84" y="9162.67" />
    <node avg_slowdown_ratio="0.987041036717" fixed="True" id="1320235607" old_x="12167.49" old_y="5498.38" type="priority" weight_num="1.0" weight_sum="0.987041036717" x="12167.49" y="5498.38" />
    <node avg_slowdown_ratio="0.986802639472" fixed="True" id="1807172979" old_x="8956.84" old_y="9102.93" type="priority" weight_num="1.0" weight_sum="0.986802639472" x="8956.84" y="9102.93" />
    <node avg_slowdown_ratio="0.986802099625" fixed="True" id="262111055" junction="True" old_x="8864.46" old_y="8948.75" type="priority" weight_num="2.0" weight_sum="1.97360419925" x="8864.46" y="8948.75" />
    <node avg_slowdown_ratio="0.986801055917" id="2928747055" junction="True" old_x="8985.09" old_y="11889.17" type="priority" weight_num="3.0" weight_sum="2.96040316775" x="9244.43645731" x_displacement_sum="259.346457314" y="12045.5866806" y_displacement_sum="156.416680592" />
    <node avg_slowdown_ratio="0.98674239234" fixed="True" id="4173759211" junction="True" old_x="8863.36" old_y="11522.47" type="priority" weight_num="2.0" weight_sum="1.97348478468" x="8863.36" y="11522.47" />
    <node avg_slowdown_ratio="0.986401783717" fixed="True" id="cluster_288734549_288734550" junction="True" old_x="9210.64" old_y="11054.67" type="priority" weight_num="3.0" weight_sum="2.95920535115" x="9210.64" y="11054.67" />
    <node avg_slowdown_ratio="0.986202759448" fixed="True" id="24206855#4-AddedOffRampNode" old_x="9109.59" old_y="8969.27" type="priority" weight_num="1.0" weight_sum="0.986202759448" x="9109.59" y="8969.27" />
    <node avg_slowdown_ratio="0.985902819435" fixed="True" id="288734552" junction="True" old_x="9218.91" old_y="11073.68" type="priority" weight_num="2.0" weight_sum="1.97180563887" x="9218.91" y="11073.68" />
    <node avg_slowdown_ratio="0.985721862105" fixed="True" id="cluster_1636588566_3926859712_3926859713" junction="True" old_x="9377.61" old_y="11201.27" type="priority" weight_num="2.0" weight_sum="1.97144372421" x="9377.61" y="11201.27" />
    <node avg_slowdown_ratio="0.985602879424" fixed="True" id="4173759212" old_x="8844.02" old_y="11548.63" type="priority" weight_num="1.0" weight_sum="0.985602879424" x="8844.02" y="11548.63" />
    <node avg_slowdown_ratio="0.985602879424" fixed="True" id="434371436#6-AddedOnRampNode" old_x="8944.46" old_y="9010.43" type="priority" weight_num="1.0" weight_sum="0.985602879424" x="8944.46" y="9010.43" />
    <node avg_slowdown_ratio="0.98560152956" fixed="True" id="2927613060" junction="True" old_x="8820.88" old_y="11579.91" type="priority" weight_num="2.0" weight_sum="1.97120305912" x="8820.88" y="11579.91" />
    <node avg_slowdown_ratio="0.9850029994" fixed="True" id="232754823#13-AddedOffRampNode" old_x="9322.85" old_y="11152.16" type="priority" weight_num="1.0" weight_sum="0.9850029994" x="9322.85" y="11152.16" />
    <node avg_slowdown_ratio="0.98487894146" fixed="True" id="261765414" junction="True" old_x="7348.15" old_y="6744.83" type="priority" weight_num="2.0" weight_sum="1.96975788292" x="7348.15" y="6744.83" />
    <node avg_slowdown_ratio="0.98483406656" fixed="True" id="261765317" junction="True" old_x="7397.94" old_y="6686.41" type="priority" weight_num="2.0" weight_sum="1.96966813312" x="7397.94" y="6686.41" />
    <node avg_slowdown_ratio="0.98476244276" fixed="True" id="cluster_2927613047_2927613048_2927613049" junction="True" old_x="8857.39" old_y="11678.88" type="priority" weight_num="2.0" weight_sum="1.96952488552" x="8857.39" y="11678.88" />
    <node avg_slowdown_ratio="0.98476201088" fixed="True" id="cluster_2928746276_2928746277_2928746278_3791348652" junction="True" old_x="9103.21" old_y="11860.45" type="priority" weight_num="3.0" weight_sum="2.95428603264" x="9103.21" y="11860.45" />
    <node avg_slowdown_ratio="0.9845212383" fixed="True" id="263016243" junction="True" old_x="11571.39" old_y="4171.63" type="priority" weight_num="2.0" weight_sum="1.9690424766" x="11571.39" y="4171.63" />
    <node avg_slowdown_ratio="0.984477226965" fixed="True" id="3791348663" junction="True" old_x="9216.42" old_y="11939.18" type="priority" weight_num="2.0" weight_sum="1.96895445393" x="9216.42" y="11939.18" />
    <node avg_slowdown_ratio="0.984102747485" fixed="True" id="cluster_2928746235_2928747257_2928747258" junction="True" old_x="8952.34" old_y="11750.43" type="priority" weight_num="2.0" weight_sum="1.96820549497" x="8952.34" y="11750.43" />
    <node avg_slowdown_ratio="0.983981281495" fixed="True" id="1845027350" junction="True" old_x="10026.1" old_y="9959.74" type="priority" weight_num="2.0" weight_sum="1.96796256299" x="10026.1" y="9959.74" />
    <node avg_slowdown_ratio="0.98366407915" fixed="True" id="1320235955" junction="True" old_x="12111.89" old_y="5385.79" tl="GS_1320235955" type="traffic_light" weight_num="2.0" weight_sum="1.9673281583" x="12111.89" y="5385.79" />
    <node avg_slowdown_ratio="0.983425952075" fixed="True" id="261662745" junction="True" old_x="9075.59" old_y="9105.28" type="priority" weight_num="2.0" weight_sum="1.96685190415" x="9075.59" y="9105.28" />
    <node avg_slowdown_ratio="0.983394343755" fixed="True" id="263022653" junction="True" old_x="11145.1" old_y="5550.27" type="priority" weight_num="2.0" weight_sum="1.96678868751" x="11145.1" y="5550.27" />
    <node avg_slowdown_ratio="0.983203359328" fixed="True" id="811037786" old_x="9135.97" old_y="8929.8" type="priority" weight_num="1.0" weight_sum="0.983203359328" x="9135.97" y="8929.8" />
    <node avg_slowdown_ratio="0.983081353492" fixed="True" id="gneJ316" old_x="9382.24" old_y="12059.73" type="priority" weight_num="1.0" weight_sum="0.983081353492" x="9382.24" y="12059.73" />
    <node avg_slowdown_ratio="0.98296136309" id="263016232" junction="True" old_x="11962.26" old_y="4649.22" type="priority" weight_num="3.0" weight_sum="2.94888408927" x="12005.0265502" x_displacement_sum="42.7665502029" y="4642.94865085" y_displacement_sum="-6.27134914503" />
    <node avg_slowdown_ratio="0.982603479304" fixed="True" id="2928746242" old_x="8730.84" old_y="12011.52" type="priority" weight_num="1.0" weight_sum="0.982603479304" x="8730.84" y="12011.52" />
    <node avg_slowdown_ratio="0.982044370745" fixed="True" id="261765374" junction="True" old_x="7164.11" old_y="6963.17" type="priority" weight_num="2.0" weight_sum="1.96408874149" x="7164.11" y="6963.17" />
    <node avg_slowdown_ratio="0.98200359928" fixed="True" id="1845019564" old_x="9177.02" old_y="9178.15" type="priority" weight_num="1.0" weight_sum="0.98200359928" x="9177.02" y="9178.15" />
    <node avg_slowdown_ratio="0.98200359928" fixed="True" id="2927613053" old_x="8845.72" old_y="11602.77" type="priority" weight_num="1.0" weight_sum="0.98200359928" x="8845.72" y="11602.77" />
    <node avg_slowdown_ratio="0.98200359928" fixed="True" id="3162585222" old_x="9181.28" old_y="11022.99" type="priority" weight_num="1.0" weight_sum="0.98200359928" x="9181.28" y="11022.99" />
    <node avg_slowdown_ratio="0.98200359928" fixed="True" id="3510035110" old_x="8964.93" old_y="11383.58" type="priority" weight_num="1.0" weight_sum="0.98200359928" x="8964.93" y="11383.58" />
    <node avg_slowdown_ratio="0.98200359928" fixed="True" id="4280981646" old_x="8922.33" old_y="11441.94" type="priority" weight_num="1.0" weight_sum="0.98200359928" x="8922.33" y="11441.94" />
    <node avg_slowdown_ratio="0.981641468685" fixed="True" id="261702938" junction="True" old_x="5933.69" old_y="7522.52" type="priority" weight_num="2.0" weight_sum="1.96328293737" x="5933.69" y="7522.52" />
    <node avg_slowdown_ratio="0.981601807787" fixed="True" id="cluster_1636594565_3926859714" junction="True" old_x="9334.72" old_y="11173.81" type="priority" weight_num="3.0" weight_sum="2.94480542336" x="9334.72" y="11173.81" />
    <node avg_slowdown_ratio="0.98146310263" fixed="True" id="261988252" junction="True" old_x="8410.62" old_y="8590.31" type="priority" weight_num="2.0" weight_sum="1.96292620526" x="8410.62" y="8590.31" />
    <node avg_slowdown_ratio="0.981403719256" fixed="True" id="1065139585" old_x="6367.27" old_y="9243.87" type="priority" weight_num="1.0" weight_sum="0.981403719256" x="6367.27" y="9243.87" />
    <node avg_slowdown_ratio="0.981403719256" fixed="True" id="26244311#12-AddedOffRampNode" old_x="9099.52" old_y="10965.41" type="priority" weight_num="1.0" weight_sum="0.981403719256" x="9099.52" y="10965.41" />
    <node avg_slowdown_ratio="0.981403719256" fixed="True" id="2927613055" old_x="8837.21" old_y="11659.89" type="priority" weight_num="1.0" weight_sum="0.981403719256" x="8837.21" y="11659.89" />
    <node avg_slowdown_ratio="0.98114460474" fixed="True" id="261765334" junction="True" old_x="7181.93" old_y="6942.21" type="priority" weight_num="2.0" weight_sum="1.96228920948" x="7181.93" y="6942.21" />
    <node avg_slowdown_ratio="0.981098433815" fixed="True" id="261765443" junction="True" old_x="7654.49" old_y="6376.11" type="priority" weight_num="2.0" weight_sum="1.96219686763" x="7654.49" y="6376.11" />
    <node avg_slowdown_ratio="0.981098109811" fixed="True" id="2861666266" old_x="7007.02" old_y="7144.9" type="priority" weight_num="1.0" weight_sum="0.981098109811" x="7007.02" y="7144.9" />
    <node avg_slowdown_ratio="0.98109810981" fixed="True" id="1362835771" junction="True" old_x="7512.84" old_y="6549.88" type="priority" weight_num="2.0" weight_sum="1.96219621962" x="7512.84" y="6549.88" />
    <node avg_slowdown_ratio="0.980921526278" fixed="True" id="3162585233" old_x="9067.86" old_y="11248.42" type="priority" weight_num="1.0" weight_sum="0.980921526278" x="9067.86" y="11248.42" />
    <node avg_slowdown_ratio="0.980921526278" fixed="True" id="gneJ69" old_x="11668.35" old_y="11115.08" type="priority" weight_num="1.0" weight_sum="0.980921526278" x="11668.35" y="11115.08" />
    <node avg_slowdown_ratio="0.980803839232" fixed="True" id="26244311#12-AddedOnRampNode" old_x="9091.57" old_y="10959.81" type="priority" weight_num="1.0" weight_sum="0.980803839232" x="9091.57" y="10959.81" />
    <node avg_slowdown_ratio="0.98080383923" fixed="True" id="2361777076" junction="True" old_x="9230.65" old_y="11057.28" type="priority" weight_num="2.0" weight_sum="1.96160767846" x="9230.65" y="11057.28" />
    <node avg_slowdown_ratio="0.980648388815" fixed="True" id="261763329" junction="True" old_x="7461.32" old_y="6587.94" type="priority" weight_num="2.0" weight_sum="1.96129677763" x="7461.32" y="6587.94" />
    <node avg_slowdown_ratio="0.98026312664" fixed="True" id="2510805192" junction="True" old_x="8620.3" old_y="8789.78" type="priority" weight_num="2.0" weight_sum="1.96052625328" x="8620.3" y="8789.78" />
    <node avg_slowdown_ratio="0.980203959208" fixed="True" id="1052165987" old_x="9224.68" old_y="7935.87" type="priority" weight_num="1.0" weight_sum="0.980203959208" x="9224.68" y="7935.87" />
    <node avg_slowdown_ratio="0.980201583873" fixed="True" id="1268402934" old_x="5985.49" old_y="7605.37" type="priority" weight_num="1.0" weight_sum="0.980201583873" x="5985.49" y="7605.37" />
    <node avg_slowdown_ratio="0.980198019802" fixed="True" id="262185724" old_x="8693.25" old_y="11940.77" type="priority" weight_num="1.0" weight_sum="0.980198019802" x="8693.25" y="11940.77" />
    <node avg_slowdown_ratio="0.980198019802" fixed="True" id="434375951#4-AddedOnRampNode" old_x="11299.49" old_y="5367.84" type="priority" weight_num="1.0" weight_sum="0.980198019802" x="11299.49" y="5367.84" />
    <node avg_slowdown_ratio="0.980021598273" id="2928746240" junction="True" old_x="8829.65" old_y="11912.69" type="priority" weight_num="4.0" weight_sum="3.92008639309" x="8716.49459418" x_displacement_sum="-113.155405818" y="12127.8906424" y_displacement_sum="215.200642417" />
    <node avg_slowdown_ratio="0.979841612671" id="1836783794" old_x="6265.14" old_y="9114.05" type="priority" weight_num="1.0" weight_sum="0.979841612671" x="5999.49877539" x_displacement_sum="-265.641224615" y="8907.65084133" y_displacement_sum="-206.399158672" />
    <node avg_slowdown_ratio="0.97984161267" id="1882098843" junction="True" old_x="8822.35" old_y="11454.27" type="priority" weight_num="3.0" weight_sum="2.93952483801" x="8869.00681443" x_displacement_sum="46.6568144264" y="11112.6888109" y_displacement_sum="-341.581189135" />
    <node avg_slowdown_ratio="0.979604079184" fixed="True" id="3976263548" old_x="14348.59" old_y="3914.64" type="priority" weight_num="1.0" weight_sum="0.979604079184" x="14348.59" y="3914.64" />
    <node avg_slowdown_ratio="0.979604079183" fixed="True" id="cluster_2569477378_289361580" junction="True" old_x="9257.48" old_y="11957.83" tl="cluster_2569477378_289361580" type="traffic_light" weight_num="3.0" weight_sum="2.93881223755" x="9257.48" y="11957.83" />
    <node avg_slowdown_ratio="0.979573631708" fixed="True" id="cluster_1791243436_1791243443_942404746_942404760" junction="True" old_x="11632.65" old_y="11113.21" tl="cluster_1791243436_1791243443_942404746_942404760" type="traffic_light" weight_num="4.0" weight_sum="3.91829452683" x="11632.65" y="11113.21" />
    <node avg_slowdown_ratio="0.979481641469" fixed="True" id="3162585225" old_x="9187.35" old_y="11086.58" type="priority" weight_num="1.0" weight_sum="0.979481641469" x="9187.35" y="11086.58" />
    <node avg_slowdown_ratio="0.979481641469" fixed="True" id="4026572320" old_x="5247.66" old_y="7369.46" type="priority" weight_num="1.0" weight_sum="0.979481641469" x="5247.66" y="7369.46" />
    <node avg_slowdown_ratio="0.97900419916" fixed="True" id="3791348649" old_x="9198.23" old_y="11924.87" type="priority" weight_num="1.0" weight_sum="0.97900419916" x="9198.23" y="11924.87" />
    <node avg_slowdown_ratio="0.9788485328" fixed="True" id="263017588" junction="True" old_x="10452.08" old_y="5579.61" type="priority" weight_num="2.0" weight_sum="1.9576970656" x="10452.08" y="5579.61" />
    <node avg_slowdown_ratio="0.978847884788" fixed="True" id="1362835716" old_x="7568.85" old_y="6479.42" type="priority" weight_num="1.0" weight_sum="0.978847884788" x="7568.85" y="6479.42" />
    <node avg_slowdown_ratio="0.978847884788" fixed="True" id="318274914#20-AddedOnRampNode" old_x="7448.45" old_y="6626.39" type="priority" weight_num="1.0" weight_sum="0.978847884788" x="7448.45" y="6626.39" />
    <node avg_slowdown_ratio="0.978847884788" fixed="True" id="434375951#4-AddedOffRampNode" old_x="11254.4" old_y="5421.87" type="priority" weight_num="1.0" weight_sum="0.978847884788" x="11254.4" y="5421.87" />
    <node avg_slowdown_ratio="0.97858333301" fixed="True" id="261665492" junction="True" old_x="9952.06" old_y="6953.45" type="priority" weight_num="2.0" weight_sum="1.95716666602" x="9952.06" y="6953.45" />
    <node avg_slowdown_ratio="0.978581713465" fixed="True" id="2569477318" junction="True" old_x="9619.69" old_y="12258.79" type="priority" weight_num="2.0" weight_sum="1.95716342693" x="9619.69" y="12258.79" />
    <node avg_slowdown_ratio="0.97847518705" fixed="True" id="2089502246" junction="True" old_x="9011.61" old_y="10899.77" type="priority" weight_num="2.0" weight_sum="1.9569503741" x="9011.61" y="10899.77" />
    <node avg_slowdown_ratio="0.978397839784" fixed="True" id="263022640" old_x="11190.33" old_y="5498.64" type="priority" weight_num="1.0" weight_sum="0.978397839784" x="11190.33" y="5498.64" />
    <node avg_slowdown_ratio="0.978397839784" fixed="True" id="434375951#6-AddedOnRampNode" old_x="11080.43" old_y="5626.54" type="priority" weight_num="1.0" weight_sum="0.978397839784" x="11080.43" y="5626.54" />
    <node avg_slowdown_ratio="0.978221742263" id="2928747035" junction="True" old_x="8897.74" old_y="11822.45" type="priority" weight_num="4.0" weight_sum="3.91288696905" x="9067.33527877" x_displacement_sum="169.595278765" y="12040.6846395" y_displacement_sum="218.234639486" />
    <node avg_slowdown_ratio="0.978101139445" fixed="True" id="cluster_261671927_261671928_261671933_261671934" junction="True" old_x="7539.2" old_y="6505.64" tl="cluster_261671927_261671928_261671933_261671934" type="traffic_light" weight_num="4.0" weight_sum="3.91240455778" x="7539.2" y="6505.64" />
    <node avg_slowdown_ratio="0.977947794779" fixed="True" id="2325763453" old_x="14420.79" old_y="3965.66" type="priority" weight_num="1.0" weight_sum="0.977947794779" x="14420.79" y="3965.66" />
    <node avg_slowdown_ratio="0.977947794779" fixed="True" id="263020579" old_x="11392.29" old_y="5258.74" type="priority" weight_num="1.0" weight_sum="0.977947794779" x="11392.29" y="5258.74" />
    <node avg_slowdown_ratio="0.977497749775" fixed="True" id="4325374010" old_x="13547.73" old_y="4136.54" type="priority" weight_num="1.0" weight_sum="0.977497749775" x="13547.73" y="4136.54" />
    <node avg_slowdown_ratio="0.977441804657" id="2928747053" junction="True" old_x="8935.96" old_y="11851.46" type="priority" weight_num="3.0" weight_sum="2.93232541397" x="9251.98056975" x_displacement_sum="316.020569752" y="12080.8982143" y_displacement_sum="229.438214349" />
    <node avg_slowdown_ratio="0.97732310989" fixed="True" id="3830472973" junction="True" old_x="14227.65" old_y="3390.35" type="priority" weight_num="2.0" weight_sum="1.95464621978" x="14227.65" y="3390.35" />
    <node avg_slowdown_ratio="0.977204559088" fixed="True" id="261836153" old_x="10179.74" old_y="6682.49" type="priority" weight_num="1.0" weight_sum="0.977204559088" x="10179.74" y="6682.49" />
    <node avg_slowdown_ratio="0.977204559088" fixed="True" id="289212922#3-AddedOffRampNode" old_x="8905.97" old_y="11464.35" type="priority" weight_num="1.0" weight_sum="0.977204559088" x="8905.97" y="11464.35" />
    <node avg_slowdown_ratio="0.97704770477" fixed="True" id="1655530434" old_x="13452.35" old_y="4171.46" type="priority" weight_num="1.0" weight_sum="0.97704770477" x="13452.35" y="4171.46" />
    <node avg_slowdown_ratio="0.97696378651" fixed="True" id="cluster_1835067182_1835067190" junction="True" old_x="8795.33" old_y="11615.8" type="priority" weight_num="3.0" weight_sum="2.93089135953" x="8795.33" y="11615.8" />
    <node avg_slowdown_ratio="0.976961843053" fixed="True" id="432445053#3-AddedOnRampNode" old_x="9149.04" old_y="11138.69" type="priority" weight_num="1.0" weight_sum="0.976961843053" x="9149.04" y="11138.69" />
    <node avg_slowdown_ratio="0.976959413005" fixed="True" id="3510035099" junction="True" old_x="9017.21" old_y="11312.14" type="priority" weight_num="2.0" weight_sum="1.95391882601" x="9017.21" y="11312.14" />
    <node avg_slowdown_ratio="0.976784124815" fixed="True" id="261988358" junction="True" old_x="8275.2" old_y="8462.23" type="priority" weight_num="2.0" weight_sum="1.95356824963" x="8275.2" y="8462.23" />
    <node avg_slowdown_ratio="0.976781857453" id="cluster_2928746227_2928746229" junction="True" old_x="8823.76" old_y="11723.35" type="priority" weight_num="4.0" weight_sum="3.90712742981" x="8559.42099116" x_displacement_sum="-264.339008845" y="11854.318901" y_displacement_sum="130.968900989" />
    <node avg_slowdown_ratio="0.97678185745" fixed="True" id="263022697" junction="True" old_x="11460.52" old_y="5782.21" type="priority" weight_num="2.0" weight_sum="1.9535637149" x="11460.52" y="5782.21" />
    <node avg_slowdown_ratio="0.97678185745" fixed="True" id="263022704" junction="True" old_x="11305.69" old_y="5656.13" type="priority" weight_num="2.0" weight_sum="1.9535637149" x="11305.69" y="5656.13" />
    <node avg_slowdown_ratio="0.976723877685" fixed="True" id="1063911832" junction="True" old_x="9886.21" old_y="7033.16" type="priority" weight_num="2.0" weight_sum="1.95344775537" x="9886.21" y="7033.16" />
    <node avg_slowdown_ratio="0.976604679065" fixed="True" id="261665151" junction="True" old_x="8521.47" old_y="8713.88" type="priority" weight_num="2.0" weight_sum="1.95320935813" x="8521.47" y="8713.88" />
    <node avg_slowdown_ratio="0.975967665155" fixed="True" id="2751313824" junction="True" old_x="8147.49" old_y="5799.75" type="priority" weight_num="2.0" weight_sum="1.95193533031" x="8147.49" y="5799.75" />
    <node avg_slowdown_ratio="0.975761939043" id="261988307" junction="True" old_x="8497.65" old_y="8530.22" type="priority" weight_num="3.0" weight_sum="2.92728581713" x="8612.43850301" x_displacement_sum="114.788503009" y="8144.3917666" y_displacement_sum="-385.828233395" />
    <node avg_slowdown_ratio="0.975697569757" fixed="True" id="4325395311" old_x="14543.93" old_y="3941.97" type="priority" weight_num="1.0" weight_sum="0.975697569757" x="14543.93" y="3941.97" />
    <node avg_slowdown_ratio="0.975697569757" fixed="True" id="434395747#2-AddedOffRampNode" old_x="14145.59" old_y="4011.73" type="priority" weight_num="1.0" weight_sum="0.975697569757" x="14145.59" y="4011.73" />
    <node avg_slowdown_ratio="0.975697569757" fixed="True" id="434395747#6-AddedOnRampNode" old_x="13889.71" old_y="4056.42" type="priority" weight_num="1.0" weight_sum="0.975697569757" x="13889.71" y="4056.42" />
    <node avg_slowdown_ratio="0.9756435322" fixed="True" id="1836783808" junction="True" old_x="6272.7" old_y="9146.57" type="priority" weight_num="2.0" weight_sum="1.9512870644" x="6272.7" y="9146.57" />
    <node avg_slowdown_ratio="0.97556326907" fixed="True" id="261765466" junction="True" old_x="7926.71" old_y="6057.16" type="priority" weight_num="2.0" weight_sum="1.95112653814" x="7926.71" y="6057.16" />
    <node avg_slowdown_ratio="0.975404919016" fixed="True" id="2510805167" old_x="8877.49" old_y="9183.95" type="priority" weight_num="1.0" weight_sum="0.975404919016" x="8877.49" y="9183.95" />
    <node avg_slowdown_ratio="0.97506802516" fixed="True" id="261763327" junction="True" old_x="7384.52" old_y="6677.77" type="priority" weight_num="2.0" weight_sum="1.95013605032" x="7384.52" y="6677.77" />
    <node avg_slowdown_ratio="0.974924453555" fixed="True" id="cluster_2522487374_262111054" junction="True" old_x="8754.05" old_y="8433.53" type="priority" weight_num="2.0" weight_sum="1.94984890711" x="8754.05" y="8433.53" />
    <node avg_slowdown_ratio="0.974805038993" fixed="True" id="cluster_1835067184_1835067188" junction="True" old_x="8820.59" old_y="11635.6" type="priority" weight_num="3.0" weight_sum="2.92441511698" x="8820.59" y="11635.6" />
    <node avg_slowdown_ratio="0.974805038992" fixed="True" id="26485468#9-AddedOffRampNode" old_x="6443.47" old_y="9308.64" type="priority" weight_num="1.0" weight_sum="0.974805038992" x="6443.47" y="9308.64" />
    <node avg_slowdown_ratio="0.974805038992" fixed="True" id="cluster_3926882183_4325306022" old_x="9835.52" old_y="7445.31" type="priority" weight_num="1.0" weight_sum="0.974805038992" x="9835.52" y="7445.31" />
    <node avg_slowdown_ratio="0.974802015839" id="1845019566" old_x="9194.26" old_y="9178.15" type="priority" weight_num="1.0" weight_sum="0.974802015839" x="9069.9076089" x_displacement_sum="-124.352391104" y="9477.81127393" y_displacement_sum="299.661273928" />
    <node avg_slowdown_ratio="0.974797479748" fixed="True" id="434395747#2-AddedOnRampNode" old_x="14209.88" old_y="4000.93" type="priority" weight_num="1.0" weight_sum="0.974797479748" x="14209.88" y="4000.93" />
    <node avg_slowdown_ratio="0.974442044635" id="2928746234" junction="True" old_x="8748.42" old_y="12021.96" type="priority" weight_num="2.0" weight_sum="1.94888408927" x="8638.28338323" x_displacement_sum="-110.136616771" y="12247.1112087" y_displacement_sum="225.151208673" />
    <node avg_slowdown_ratio="0.97420515897" controlledInner="282215701 282215705 282215708 282215715" fixed="True" id="261671854" junction="True" old_x="6334.52" old_y="9195.98" tl="joinedS_2" type="traffic_light" weight_num="2.0" weight_sum="1.94841031794" x="6334.52" y="9195.98" />
    <node avg_slowdown_ratio="0.974205158968" fixed="True" id="2361777081" old_x="9243.33" old_y="11039.98" type="priority" weight_num="1.0" weight_sum="0.974205158968" x="9243.33" y="11039.98" />