<?xml version="1.0" encoding="UTF-8"?>

<!-- generated on 11/30/16 15:56:00 by SUMO netconvert Version 0.27.1
<?xml version="1.0" encoding="UTF-8"?>

<configuration xmlns:xsi="http://www.w3.org/2001/XMLSchema-instance" xsi:noNamespaceSchemaLocation="http://sumo.dlr.de/xsd/netconvertConfiguration.xsd">

    <input>
        <node-files value="C:\Users\zs633\Capstone\3_lensing\test_2\7_displaced\lensing.nod.xml"/>
        <edge-files value="C:\Users\zs633\Capstone\3_lensing\test_2\7_displaced\lensing.edg.xml"/>
        <connection-files value="C:\Users\zs633\Capstone\3_lensing\test_2\4_plain\test.con.xml"/>
        <tllogic-files value="C:\Users\zs633\Capstone\3_lensing\test_2\4_plain\test.tll.xml"/>
    </input>

    <output>
        <output-file value="C:\Users\zs633\Capstone\3_lensing\test_2\9_output_net\lensing.net.xml"/>
    </output>

    <processing>
        <ignore-errors value="true"/>
        <ignore-errors.edge-type value="true"/>
    </processing>

    <report>
        <verbose value="true"/>
        <xml-validation value="never"/>
        <no-warnings value="true"/>
    </report>

</configuration>
-->

<net version="0.27" xmlns:xsi="http://www.w3.org/2001/XMLSchema-instance" xsi:noNamespaceSchemaLocation="http://sumo.dlr.de/xsd/net_file.xsd">

    <location netOffset="299.33,299.33" convBoundary="0.00,0.00,2598.67,2598.67" origBoundary="-299.33,-299.33,2299.33,2299.33" projParameter="!"/>

    <edge id=":node_00x00_0" function="internal">
        <lane id=":node_00x00_0_0" index="0" disallow="tram rail_urban rail rail_electric ship" speed="13.89" length="7.90" shape="297.68,302.58 297.99,300.44 298.91,298.91 300.44,297.99 302.58,297.68"/>
    </edge>
    <edge id=":node_00x00_1" function="internal">
        <lane id=":node_00x00_1_0" index="0" disallow="tram rail_urban rail rail_electric ship" speed="13.89" length="2.58" shape="302.58,300.98 301.88,301.08 301.38,301.38 301.08,301.88 300.98,302.58"/>
    </edge>
    <edge id=":node_00x01_0" function="internal">
        <lane id=":node_00x01_0_0" index="0" disallow="tram rail_urban rail rail_electric ship" speed="13.89" length="9.50" shape="297.68,404.08 297.68,394.58"/>
    </edge>
    <edge id=":node_00x01_1" function="internal">
        <lane id=":node_00x01_1_0" index="0" disallow="tram rail_urban rail rail_electric ship" speed="13.89" length="5.28" shape="297.68,404.08 298.08,401.28 299.28,399.28 299.38,399.22"/>
    </edge>
    <edge id=":node_00x01_6" function="internal">
        <lane id=":node_00x01_6_0" index="0" speed="13.89" length="5.04" shape="299.38,399.22 301.28,398.08 304.08,397.68"/>
    </edge>
    <edge id=":node_00x01_2" function="internal">
        <lane id=":node_00x01_2_0" index="0" disallow="tram rail_urban rail rail_electric ship" speed="13.89" length="5.00" shape="304.08,400.98 302.73,401.18 301.76,401.76 301.18,402.73 300.98,404.08"/>
    </edge>
    <edge id=":node_00x01_3" function="internal">
        <lane id=":node_00x01_3_0" index="0" disallow="tram rail_urban rail rail_electric ship" speed="13.89" length="10.32" shape="304.08,400.98 301.28,400.58 299.28,399.38 298.08,397.38 297.68,394.58"/>
    </edge>
    <edge id=":node_00x01_4" function="internal">
        <lane id=":node_00x01_4_0" index="0" disallow="tram rail_urban rail rail_electric ship" speed="13.89" length="5.00" shape="300.98,394.58 301.18,395.94 301.76,396.91 302.73,397.49 304.08,397.68"/>
    </edge>
    <edge id=":node_00x01_5" function="internal">
        <lane id=":node_00x01_5_0" index="0" disallow="tram rail_urban rail rail_electric ship" speed="13.89" length="9.50" shape="300.98,394.58 300.98,404.08"/>
    </edge>
    <edge id=":node_00x02_0" function="internal">
        <lane id=":node_00x02_0_0" index="0" disallow="tram rail_urban rail rail_electric ship" speed="13.89" length="9.50" shape="297.68,504.08 297.68,494.58"/>
    </edge>
    <edge id=":node_00x02_1" function="internal">
        <lane id=":node_00x02_1_0" index="0" disallow="tram rail_urban rail rail_electric ship" speed="13.89" length="5.28" shape="297.68,504.08 298.08,501.28 299.28,499.28 299.38,499.22"/>
    </edge>
    <edge id=":node_00x02_6" function="internal">
        <lane id=":node_00x02_6_0" index="0" speed="13.89" length="5.04" shape="299.38,499.22 301.28,498.08 304.08,497.68"/>
    </edge>
    <edge id=":node_00x02_2" function="internal">
        <lane id=":node_00x02_2_0" index="0" disallow="tram rail_urban rail rail_electric ship" speed="13.89" length="5.00" shape="304.08,500.98 302.73,501.18 301.76,501.76 301.18,502.73 300.98,504.08"/>
    </edge>
    <edge id=":node_00x02_3" function="internal">
        <lane id=":node_00x02_3_0" index="0" disallow="tram rail_urban rail rail_electric ship" speed="13.89" length="10.32" shape="304.08,500.98 301.28,500.58 299.28,499.38 298.08,497.38 297.68,494.58"/>
    </edge>
    <edge id=":node_00x02_4" function="internal">
        <lane id=":node_00x02_4_0" index="0" disallow="tram rail_urban rail rail_electric ship" speed="13.89" length="5.00" shape="300.98,494.58 301.18,495.94 301.76,496.91 302.73,497.49 304.08,497.68"/>
    </edge>
    <edge id=":node_00x02_5" function="internal">
        <lane id=":node_00x02_5_0" index="0" disallow="tram rail_urban rail rail_electric ship" speed="13.89" length="9.50" shape="300.98,494.58 300.98,504.08"/>
    </edge>
    <edge id=":node_00x03_0" function="internal">
        <lane id=":node_00x03_0_0" index="0" disallow="tram rail_urban rail rail_electric ship" speed="13.89" length="9.50" shape="297.68,604.08 297.68,594.58"/>
    </edge>
    <edge id=":node_00x03_1" function="internal">
        <lane id=":node_00x03_1_0" index="0" disallow="tram rail_urban rail rail_electric ship" speed="13.89" length="5.28" shape="297.68,604.08 298.08,601.28 299.28,599.28 299.38,599.22"/>
    </edge>
    <edge id=":node_00x03_6" function="internal">
        <lane id=":node_00x03_6_0" index="0" speed="13.89" length="5.04" shape="299.38,599.22 301.28,598.08 304.08,597.68"/>
    </edge>
    <edge id=":node_00x03_2" function="internal">
        <lane id=":node_00x03_2_0" index="0" disallow="tram rail_urban rail rail_electric ship" speed="13.89" length="5.00" shape="304.08,600.98 302.73,601.18 301.76,601.76 301.18,602.73 300.98,604.08"/>
    </edge>
    <edge id=":node_00x03_3" function="internal">
        <lane id=":node_00x03_3_0" index="0" disallow="tram rail_urban rail rail_electric ship" speed="13.89" length="10.32" shape="304.08,600.98 301.28,600.58 299.28,599.38 298.08,597.38 297.68,594.58"/>
    </edge>
    <edge id=":node_00x03_4" function="internal">
        <lane id=":node_00x03_4_0" index="0" disallow="tram rail_urban rail rail_electric ship" speed="13.89" length="5.00" shape="300.98,594.58 301.18,595.94 301.76,596.91 302.73,597.49 304.08,597.68"/>
    </edge>
    <edge id=":node_00x03_5" function="internal">
        <lane id=":node_00x03_5_0" index="0" disallow="tram rail_urban rail rail_electric ship" speed="13.89" length="9.50" shape="300.98,594.58 300.98,604.08"/>
    </edge>
    <edge id=":node_00x04_0" function="internal">
        <lane id=":node_00x04_0_0" index="0" disallow="tram rail_urban rail rail_electric ship" speed="13.89" length="9.50" shape="297.68,704.08 297.68,694.58"/>
    </edge>
    <edge id=":node_00x04_1" function="internal">
        <lane id=":node_00x04_1_0" index="0" disallow="tram rail_urban rail rail_electric ship" speed="13.89" length="5.28" shape="297.68,704.08 298.08,701.28 299.28,699.28 299.38,699.22"/>
    </edge>
    <edge id=":node_00x04_6" function="internal">
        <lane id=":node_00x04_6_0" index="0" speed="13.89" length="5.04" shape="299.38,699.22 301.28,698.08 304.08,697.68"/>
    </edge>
    <edge id=":node_00x04_2" function="internal">
        <lane id=":node_00x04_2_0" index="0" disallow="tram rail_urban rail rail_electric ship" speed="13.89" length="5.00" shape="304.08,700.98 302.73,701.18 301.76,701.76 301.18,702.73 300.98,704.08"/>
    </edge>
    <edge id=":node_00x04_3" function="internal">
        <lane id=":node_00x04_3_0" index="0" disallow="tram rail_urban rail rail_electric ship" speed="13.89" length="10.32" shape="304.08,700.98 301.28,700.58 299.28,699.38 298.08,697.38 297.68,694.58"/>
    </edge>
    <edge id=":node_00x04_4" function="internal">
        <lane id=":node_00x04_4_0" index="0" disallow="tram rail_urban rail rail_electric ship" speed="13.89" length="5.00" shape="300.98,694.58 301.18,695.94 301.76,696.91 302.73,697.49 304.08,697.68"/>
    </edge>
    <edge id=":node_00x04_5" function="internal">
        <lane id=":node_00x04_5_0" index="0" disallow="tram rail_urban rail rail_electric ship" speed="13.89" length="9.50" shape="300.98,694.58 300.98,704.08"/>
    </edge>
    <edge id=":node_00x05_0" function="internal">
        <lane id=":node_00x05_0_0" index="0" disallow="tram rail_urban rail rail_electric ship" speed="13.89" length="5.10" shape="304.08,800.98 302.67,801.17 301.62,801.73 300.95,802.66 300.66,803.97"/>
    </edge>
    <edge id=":node_00x05_1" function="internal">
        <lane id=":node_00x05_1_0" index="0" disallow="tram rail_urban rail rail_electric ship" speed="13.89" length="10.32" shape="304.08,800.98 301.28,800.58 299.28,799.38 298.08,797.38 297.68,794.58"/>
    </edge>
    <edge id=":node_00x05_2" function="internal">
        <lane id=":node_00x05_2_0" index="0" disallow="tram rail_urban rail rail_electric ship" speed="13.89" length="5.00" shape="300.98,794.58 301.18,795.94 301.76,796.91 302.73,797.49 304.08,797.68"/>
    </edge>
    <edge id=":node_00x05_3" function="internal">
        <lane id=":node_00x05_3_0" index="0" disallow="tram rail_urban rail rail_electric ship" speed="13.89" length="9.39" shape="300.98,794.58 300.66,803.97"/>
    </edge>
    <edge id=":node_00x05_4" function="internal">
        <lane id=":node_00x05_4_0" index="0" disallow="tram rail_urban rail rail_electric ship" speed="13.89" length="9.16" shape="297.37,803.74 297.68,794.58"/>
    </edge>
    <edge id=":node_00x05_5" function="internal">
        <lane id=":node_00x05_5_0" index="0" disallow="tram rail_urban rail rail_electric ship" speed="13.89" length="5.01" shape="297.37,803.74 297.95,801.09 299.26,799.20"/>
    </edge>
    <edge id=":node_00x05_6" function="internal">
        <lane id=":node_00x05_6_0" index="0" speed="13.89" length="5.14" shape="299.26,799.20 301.31,798.06 304.08,797.68"/>
    </edge>
    <edge id=":node_00x06_0" function="internal">
        <lane id=":node_00x06_0_0" index="0" disallow="tram rail_urban rail rail_electric ship" speed="13.89" length="4.90" shape="301.01,887.36 297.18,890.42"/>
    </edge>
    <edge id=":node_00x06_1" function="internal">
        <lane id=":node_00x06_1_0" index="0" disallow="tram rail_urban rail rail_electric ship" speed="13.89" length="13.62" shape="301.01,887.36 296.62,890.63 293.61,890.98 292.01,888.42 291.93,886.32"/>
    </edge>
    <edge id=":node_00x06_6" function="internal">
        <lane id=":node_00x06_6_0" index="0" speed="13.89" length="3.38" shape="291.93,886.32 291.80,882.95"/>
    </edge>
    <edge id=":node_00x06_2" function="internal">
        <lane id=":node_00x06_2_0" index="0" disallow="tram rail_urban rail rail_electric ship" speed="13.89" length="6.79" shape="295.09,883.18 295.17,885.37 295.82,886.39 297.01,886.25 298.77,884.94"/>
    </edge>
    <edge id=":node_00x06_3" function="internal">
        <lane id=":node_00x06_3_0" index="0" disallow="tram rail_urban rail rail_electric ship" speed="13.89" length="7.54" shape="295.09,883.18 297.18,890.42"/>
    </edge>
    <edge id=":node_00x06_4" function="internal">
        <lane id=":node_00x06_4_0" index="0" disallow="tram rail_urban rail rail_electric ship" speed="13.89" length="6.69" shape="294.76,888.18 295.13,886.85 293.97,885.86 292.46,884.72 291.80,882.95"/>
    </edge>
    <edge id=":node_00x06_5" function="internal">
        <lane id=":node_00x06_5_0" index="0" disallow="tram rail_urban rail rail_electric ship" speed="13.89" length="5.16" shape="294.76,888.18 295.86,887.12 296.72,886.51 297.59,885.92 298.77,884.94"/>
    </edge>
    <edge id=":node_00x07_0" function="internal">
        <lane id=":node_00x07_0_0" index="0" disallow="tram rail_urban rail rail_electric ship" speed="13.89" length="2.51" shape="242.72,949.15 241.09,951.06"/>
    </edge>
    <edge id=":node_00x07_1" function="internal">
        <lane id=":node_00x07_1_0" index="0" disallow="tram rail_urban rail rail_electric ship" speed="13.89" length="3.30" shape="242.72,949.15 240.29,946.91"/>
    </edge>
    <edge id=":node_00x07_2" function="internal">
        <lane id=":node_00x07_2_0" index="0" disallow="tram rail_urban rail rail_electric ship" speed="13.89" length="2.51" shape="242.72,949.15 241.09,951.06"/>
    </edge>
    <edge id=":node_00x07_3" function="internal">
        <lane id=":node_00x07_3_0" index="0" disallow="tram rail_urban rail rail_electric ship" speed="13.89" length="3.30" shape="242.72,949.15 240.29,946.91"/>
    </edge>
    <edge id=":node_00x07_4" function="internal">
        <lane id=":node_00x07_4_0" index="0" disallow="tram rail_urban rail rail_electric ship" speed="13.89" length="2.78" shape="238.49,949.03 240.29,946.91"/>
    </edge>
    <edge id=":node_00x07_5" function="internal">
        <lane id=":node_00x07_5_0" index="0" disallow="tram rail_urban rail rail_electric ship" speed="13.89" length="2.78" shape="238.49,949.03 240.29,946.91"/>
    </edge>
    <edge id=":node_00x08_0" function="internal">
        <lane id=":node_00x08_0_0" index="0" disallow="tram rail_urban rail rail_electric ship" speed="13.89" length="2.41" shape="188.31,1018.56 186.92,1020.53"/>
    </edge>
    <edge id=":node_00x08_1" function="internal">
        <lane id=":node_00x08_1_0" index="0" disallow="tram rail_urban rail rail_electric ship" speed="13.89" length="3.31" shape="188.31,1018.56 185.70,1016.54"/>
    </edge>
    <edge id=":node_00x08_2" function="internal">
        <lane id=":node_00x08_2_0" index="0" disallow="tram rail_urban rail rail_electric ship" speed="13.89" length="2.41" shape="188.31,1018.55 186.92,1020.53"/>
    </edge>
    <edge id=":node_00x08_3" function="internal">
        <lane id=":node_00x08_3_0" index="0" disallow="tram rail_urban rail rail_electric ship" speed="13.89" length="3.29" shape="188.31,1018.55 185.70,1016.54"/>
    </edge>
    <edge id=":node_00x08_4" function="internal">
        <lane id=":node_00x08_4_0" index="0" disallow="tram rail_urban rail rail_electric ship" speed="13.89" length="2.70" shape="184.14,1018.75 185.70,1016.54"/>
    </edge>
    <edge id=":node_00x08_5" function="internal">
        <lane id=":node_00x08_5_0" index="0" disallow="tram rail_urban rail rail_electric ship" speed="13.89" length="2.70" shape="184.14,1018.75 185.70,1016.54"/>
    </edge>
    <edge id=":node_00x09_0" function="internal">
        <lane id=":node_00x09_0_0" index="0" disallow="tram rail_urban rail rail_electric ship" speed="13.89" length="2.25" shape="133.74,1103.44 132.63,1105.40"/>
    </edge>
    <edge id=":node_00x09_1" function="internal">
        <lane id=":node_00x09_1_0" index="0" disallow="tram rail_urban rail rail_electric ship" speed="13.89" length="3.32" shape="133.74,1103.44 130.91,1101.70"/>
    </edge>
    <edge id=":node_00x09_2" function="internal">
        <lane id=":node_00x09_2_0" index="0" disallow="tram rail_urban rail rail_electric ship" speed="13.89" length="2.25" shape="133.72,1103.43 132.63,1105.40"/>
    </edge>
    <edge id=":node_00x09_3" function="internal">
        <lane id=":node_00x09_3_0" index="0" disallow="tram rail_urban rail rail_electric ship" speed="13.89" length="3.28" shape="133.72,1103.43 130.93,1101.71"/>
    </edge>
    <edge id=":node_00x09_4" function="internal">
        <lane id=":node_00x09_4_0" index="0" disallow="tram rail_urban rail rail_electric ship" speed="13.89" length="2.55" shape="129.67,1103.93 130.91,1101.70"/>
    </edge>
    <edge id=":node_00x09_5" function="internal">
        <lane id=":node_00x09_5_0" index="0" disallow="tram rail_urban rail rail_electric ship" speed="13.89" length="2.55" shape="129.67,1103.93 130.93,1101.71"/>
    </edge>
    <edge id=":node_00x10_0" function="internal">
        <lane id=":node_00x10_0_0" index="0" disallow="tram rail_urban rail rail_electric ship" speed="13.89" length="2.11" shape="82.79,1205.43 81.97,1207.38"/>
    </edge>
    <edge id=":node_00x10_1" function="internal">
        <lane id=":node_00x10_1_0" index="0" disallow="tram rail_urban rail rail_electric ship" speed="13.89" length="3.33" shape="82.79,1205.43 79.77,1204.03"/>
    </edge>
    <edge id=":node_00x10_2" function="internal">
        <lane id=":node_00x10_2_0" index="0" disallow="tram rail_urban rail rail_electric ship" speed="13.89" length="2.11" shape="82.76,1205.42 81.97,1207.38"/>
    </edge>
    <edge id=":node_00x10_3" function="internal">
        <lane id=":node_00x10_3_0" index="0" disallow="tram rail_urban rail rail_electric ship" speed="13.89" length="3.27" shape="82.76,1205.42 79.79,1204.04"/>
    </edge>
    <edge id=":node_00x10_4" function="internal">
        <lane id=":node_00x10_4_0" index="0" disallow="tram rail_urban rail rail_electric ship" speed="13.89" length="2.42" shape="78.86,1206.27 79.77,1204.03"/>
    </edge>
    <edge id=":node_00x10_5" function="internal">
        <lane id=":node_00x10_5_0" index="0" disallow="tram rail_urban rail rail_electric ship" speed="13.89" length="2.42" shape="78.86,1206.27 79.79,1204.04"/>
    </edge>
    <edge id=":node_00x11_0" function="internal">
        <lane id=":node_00x11_0_0" index="0" disallow="tram rail_urban rail rail_electric ship" speed="13.89" length="1.98" shape="40.35,1324.39 39.82,1326.30"/>
    </edge>
    <edge id=":node_00x11_1" function="internal">
        <lane id=":node_00x11_1_0" index="0" disallow="tram rail_urban rail rail_electric ship" speed="13.89" length="81.59" shape="40.35,1324.39 29.90,1353.14 25.89,1362.56 28.31,1352.64 37.16,1323.40"/>
    </edge>
    <edge id=":node_00x11_2" function="internal">
        <lane id=":node_00x11_2_0" index="0" disallow="tram rail_urban rail rail_electric ship" speed="13.89" length="1.98" shape="40.31,1324.38 39.82,1326.30"/>
    </edge>
    <edge id=":node_00x11_3" function="internal">
        <lane id=":node_00x11_3_0" index="0" disallow="tram rail_urban rail rail_electric ship" speed="13.89" length="3.26" shape="40.31,1324.38 37.20,1323.41"/>
    </edge>
    <edge id=":node_00x11_4" function="internal">
        <lane id=":node_00x11_4_0" index="0" disallow="tram rail_urban rail rail_electric ship" speed="13.89" length="2.28" shape="36.60,1325.61 37.16,1323.40"/>
    </edge>
    <edge id=":node_00x11_5" function="internal">
        <lane id=":node_00x11_5_0" index="0" disallow="tram rail_urban rail rail_electric ship" speed="13.89" length="2.28" shape="36.60,1325.61 37.20,1323.41"/>
    </edge>
    <edge id=":node_00x12_0" function="internal">
        <lane id=":node_00x12_0_0" index="0" disallow="tram rail_urban rail rail_electric ship" speed="13.89" length="1.91" shape="11.89,1457.41 11.64,1459.30"/>
    </edge>
    <edge id=":node_00x12_1" function="internal">
        <lane id=":node_00x12_1_0" index="0" disallow="tram rail_urban rail rail_electric ship" speed="13.89" length="59.49" shape="11.89,1457.41 7.04,1479.18 4.87,1486.35 5.38,1478.92 8.58,1456.90"/>
    </edge>
    <edge id=":node_00x12_2" function="internal">
        <lane id=":node_00x12_2_0" index="0" disallow="tram rail_urban rail rail_electric ship" speed="13.89" length="1.91" shape="11.84,1457.40 11.64,1459.30"/>
    </edge>
    <edge id=":node_00x12_3" function="internal">
        <lane id=":node_00x12_3_0" index="0" disallow="tram rail_urban rail rail_electric ship" speed="13.89" length="3.25" shape="11.84,1457.40 8.62,1456.90"/>
    </edge>
    <edge id=":node_00x12_4" function="internal">
        <lane id=":node_00x12_4_0" index="0" disallow="tram rail_urban rail rail_electric ship" speed="13.89" length="2.18" shape="8.35,1459.06 8.58,1456.90"/>
    </edge>
    <edge id=":node_00x12_5" function="internal">
        <lane id=":node_00x12_5_0" index="0" disallow="tram rail_urban rail rail_electric ship" speed="13.89" length="2.18" shape="8.35,1459.06 8.62,1456.90"/>
    </edge>
    <edge id=":node_00x13_0" function="internal">
        <lane id=":node_00x13_0_0" index="0" disallow="tram rail_urban rail rail_electric ship" speed="13.89" length="3.83" shape="-1.48,1601.18 2.35,1600.98"/>
    </edge>
    <edge id=":node_00x13_1" function="internal">
        <lane id=":node_00x13_1_0" index="0" disallow="tram rail_urban rail rail_electric ship" speed="13.89" length="4.50" shape="-1.48,1601.18 -1.42,1596.68"/>
    </edge>
    <edge id=":node_00x13_2" function="internal">
        <lane id=":node_00x13_2_0" index="0" disallow="tram rail_urban rail rail_electric ship" speed="13.89" length="3.22" shape="1.82,1597.72 1.82,1600.94"/>
    </edge>
    <edge id=":node_00x13_3" function="internal">
        <lane id=":node_00x13_3_0" index="0" disallow="tram rail_urban rail rail_electric ship" speed="13.89" length="1.69" shape="1.82,1597.72 2.09,1599.39"/>
    </edge>
    <edge id=":node_00x13_6" function="internal">
        <lane id=":node_00x13_6_0" index="0" speed="13.89" length="1.61" shape="2.09,1599.39 2.35,1600.98"/>
    </edge>
    <edge id=":node_00x13_4" function="internal">
        <lane id=":node_00x13_4_0" index="0" disallow="tram rail_urban rail rail_electric ship" speed="13.89" length="3.03" shape="1.44,1597.68 -1.42,1596.68"/>
    </edge>
    <edge id=":node_00x13_5" function="internal">
        <lane id=":node_00x13_5_0" index="0" disallow="tram rail_urban rail rail_electric ship" speed="13.89" length="3.50" shape="1.44,1597.68 1.91,1598.05 1.98,1598.94 1.87,1600.01 1.82,1600.94"/>
    </edge>
    <edge id=":node_00x14_0" function="internal">
        <lane id=":node_00x14_0_0" index="0" disallow="tram rail_urban rail rail_electric ship" speed="13.89" length="2.79" shape="8.65,1742.22 8.33,1739.45"/>
    </edge>
    <edge id=":node_00x14_1" function="internal">
        <lane id=":node_00x14_1_0" index="0" disallow="tram rail_urban rail rail_electric ship" speed="13.89" length="59.95" shape="8.65,1742.22 5.43,1720.03 4.91,1712.55 7.10,1719.77 11.98,1741.71"/>
    </edge>
    <edge id=":node_00x14_2" function="internal">
        <lane id=":node_00x14_2_0" index="0" disallow="tram rail_urban rail rail_electric ship" speed="13.89" length="2.79" shape="8.72,1742.21 8.33,1739.45"/>
    </edge>
    <edge id=":node_00x14_3" function="internal">
        <lane id=":node_00x14_3_0" index="0" disallow="tram rail_urban rail rail_electric ship" speed="13.89" length="3.23" shape="8.72,1742.21 11.91,1741.72"/>
    </edge>
    <edge id=":node_00x14_4" function="internal">
        <lane id=":node_00x14_4_0" index="0" disallow="tram rail_urban rail rail_electric ship" speed="13.89" length="2.52" shape="11.63,1739.21 11.98,1741.71"/>
    </edge>
    <edge id=":node_00x14_5" function="internal">
        <lane id=":node_00x14_5_0" index="0" disallow="tram rail_urban rail rail_electric ship" speed="13.89" length="2.52" shape="11.63,1739.21 11.91,1741.72"/>
    </edge>
    <edge id=":node_00x15_0" function="internal">
        <lane id=":node_00x15_0_0" index="0" disallow="tram rail_urban rail rail_electric ship" speed="13.89" length="2.73" shape="37.26,1875.60 36.57,1872.95"/>
    </edge>
    <edge id=":node_00x15_1" function="internal">
        <lane id=":node_00x15_1_0" index="0" disallow="tram rail_urban rail rail_electric ship" speed="13.89" length="81.93" shape="37.26,1875.60 28.37,1846.23 25.94,1836.27 29.98,1845.73 40.47,1874.60"/>
    </edge>
    <edge id=":node_00x15_2" function="internal">
        <lane id=":node_00x15_2_0" index="0" disallow="tram rail_urban rail rail_electric ship" speed="13.89" length="2.73" shape="37.31,1875.58 36.57,1872.95"/>
    </edge>
    <edge id=":node_00x15_3" function="internal">
        <lane id=":node_00x15_3_0" index="0" disallow="tram rail_urban rail rail_electric ship" speed="13.89" length="3.25" shape="37.31,1875.58 40.41,1874.62"/>
    </edge>
    <edge id=":node_00x15_4" function="internal">
        <lane id=":node_00x15_4_0" index="0" disallow="tram rail_urban rail rail_electric ship" speed="13.89" length="2.43" shape="39.80,1872.26 40.47,1874.60"/>
    </edge>
    <edge id=":node_00x15_5" function="internal">
        <lane id=":node_00x15_5_0" index="0" disallow="tram rail_urban rail rail_electric ship" speed="13.89" length="2.44" shape="39.80,1872.26 40.41,1874.62"/>
    </edge>
    <edge id=":node_00x16_0" function="internal">
        <lane id=":node_00x16_0_0" index="0" disallow="tram rail_urban rail rail_electric ship" speed="13.89" length="2.72" shape="79.86,1994.84 78.83,1992.33"/>
    </edge>
    <edge id=":node_00x16_1" function="internal">
        <lane id=":node_00x16_1_0" index="0" disallow="tram rail_urban rail rail_electric ship" speed="13.89" length="3.34" shape="79.86,1994.84 82.89,1993.44"/>
    </edge>
    <edge id=":node_00x16_2" function="internal">
        <lane id=":node_00x16_2_0" index="0" disallow="tram rail_urban rail rail_electric ship" speed="13.89" length="2.41" shape="81.94,1991.22 82.89,1993.44"/>
    </edge>
    <edge id=":node_00x16_3" function="internal">
        <lane id=":node_00x16_3_0" index="0" disallow="tram rail_urban rail rail_electric ship" speed="13.89" length="2.41" shape="81.94,1991.22 82.86,1993.45"/>
    </edge>
    <edge id=":node_00x16_4" function="internal">
        <lane id=":node_00x16_4_0" index="0" disallow="tram rail_urban rail rail_electric ship" speed="13.89" length="2.72" shape="79.89,1994.83 78.83,1992.33"/>
    </edge>
    <edge id=":node_00x16_5" function="internal">
        <lane id=":node_00x16_5_0" index="0" disallow="tram rail_urban rail rail_electric ship" speed="13.89" length="3.27" shape="79.89,1994.83 82.86,1993.45"/>
    </edge>
    <edge id=":node_00x17_0" function="internal">
        <lane id=":node_00x17_0_0" index="0" disallow="tram rail_urban rail rail_electric ship" speed="13.89" length="2.73" shape="130.98,2097.09 129.65,2094.70"/>
    </edge>
    <edge id=":node_00x17_1" function="internal">
        <lane id=":node_00x17_1_0" index="0" disallow="tram rail_urban rail rail_electric ship" speed="13.89" length="3.32" shape="130.98,2097.09 133.81,2095.34"/>
    </edge>
    <edge id=":node_00x17_2" function="internal">
        <lane id=":node_00x17_2_0" index="0" disallow="tram rail_urban rail rail_electric ship" speed="13.89" length="2.43" shape="132.61,2093.23 133.81,2095.34"/>
    </edge>
    <edge id=":node_00x17_3" function="internal">
        <lane id=":node_00x17_3_0" index="0" disallow="tram rail_urban rail rail_electric ship" speed="13.89" length="2.44" shape="132.61,2093.23 133.79,2095.35"/>
    </edge>
    <edge id=":node_00x17_4" function="internal">
        <lane id=":node_00x17_4_0" index="0" disallow="tram rail_urban rail rail_electric ship" speed="13.89" length="2.73" shape="131.00,2097.08 129.65,2094.70"/>
    </edge>
    <edge id=":node_00x17_5" function="internal">
        <lane id=":node_00x17_5_0" index="0" disallow="tram rail_urban rail rail_electric ship" speed="13.89" length="3.28" shape="131.00,2097.08 133.79,2095.35"/>
    </edge>
    <edge id=":node_00x18_0" function="internal">
        <lane id=":node_00x18_0_0" index="0" disallow="tram rail_urban rail rail_electric ship" speed="13.89" length="2.77" shape="185.73,2182.17 184.13,2179.91"/>
    </edge>
    <edge id=":node_00x18_1" function="internal">
        <lane id=":node_00x18_1_0" index="0" disallow="tram rail_urban rail rail_electric ship" speed="13.89" length="3.31" shape="185.73,2182.17 188.35,2180.15"/>
    </edge>
    <edge id=":node_00x18_2" function="internal">
        <lane id=":node_00x18_2_0" index="0" disallow="tram rail_urban rail rail_electric ship" speed="13.89" length="2.48" shape="186.91,2178.13 188.35,2180.15"/>
    </edge>
    <edge id=":node_00x18_3" function="internal">
        <lane id=":node_00x18_3_0" index="0" disallow="tram rail_urban rail rail_electric ship" speed="13.89" length="2.48" shape="186.91,2178.13 188.34,2180.15"/>
    </edge>
    <edge id=":node_00x18_4" function="internal">
        <lane id=":node_00x18_4_0" index="0" disallow="tram rail_urban rail rail_electric ship" speed="13.89" length="2.77" shape="185.73,2182.16 184.13,2179.91"/>
    </edge>
    <edge id=":node_00x18_5" function="internal">
        <lane id=":node_00x18_5_0" index="0" disallow="tram rail_urban rail rail_electric ship" speed="13.89" length="3.29" shape="185.73,2182.16 188.34,2180.15"/>
    </edge>
    <edge id=":node_00x19_0" function="internal">
        <lane id=":node_00x19_0_0" index="0" disallow="tram rail_urban rail rail_electric ship" speed="13.89" length="2.79" shape="240.30,2251.76 238.49,2249.64"/>
    </edge>
    <edge id=":node_00x19_1" function="internal">
        <lane id=":node_00x19_1_0" index="0" disallow="tram rail_urban rail rail_electric ship" speed="13.89" length="3.30" shape="240.30,2251.76 242.72,2249.52"/>
    </edge>
    <edge id=":node_00x19_2" function="internal">
        <lane id=":node_00x19_2_0" index="0" disallow="tram rail_urban rail rail_electric ship" speed="13.89" length="2.52" shape="241.09,2247.61 242.72,2249.52"/>
    </edge>
    <edge id=":node_00x19_3" function="internal">
        <lane id=":node_00x19_3_0" index="0" disallow="tram rail_urban rail rail_electric ship" speed="13.89" length="2.52" shape="241.09,2247.61 242.72,2249.52"/>
    </edge>
    <edge id=":node_00x19_4" function="internal">
        <lane id=":node_00x19_4_0" index="0" disallow="tram rail_urban rail rail_electric ship" speed="13.89" length="2.79" shape="240.30,2251.76 238.49,2249.64"/>
    </edge>
    <edge id=":node_00x19_5" function="internal">
        <lane id=":node_00x19_5_0" index="0" disallow="tram rail_urban rail rail_electric ship" speed="13.89" length="3.30" shape="240.30,2251.76 242.72,2249.52"/>
    </edge>
    <edge id=":node_00x20_0" function="internal">