<?xml version='1.0' encoding='UTF-8'?>
<nodes xmlns:xsi="http://www.w3.org/2001/XMLSchema-instance" version="0.27" xsi:noNamespaceSchemaLocation="http://sumo.dlr.de/xsd/edges_file.xsd"><node avg_slowdown_ratio="0.999280057598" id="node_07x13" junction="True" old_x="700.0" old_y="1300.0" type="priority" weight_num="4.0" weight_sum="3.99712023039" x="593.369450006" x_displacement_sum="-106.630549994" y="1406.63054999" y_displacement_sum="106.630549994" />
    <node avg_slowdown_ratio="0.999280057598" id="node_13x07" junction="True" old_x="1300.0" old_y="700.0" type="priority" weight_num="4.0" weight_sum="3.99712023039" x="1406.63054999" x_displacement_sum="106.630549994" y="593.369450006" y_displacement_sum="-106.630549994" />
    <node avg_slowdown_ratio="0.0" id="node_00x00" junction="True" old_x="0.0" old_y="0.0" type="priority" weight_num="2.0" weight_sum="0.0" x="0.0" y="0.0" />
    <node avg_slowdown_ratio="0.0" id="node_00x01" junction="True" old_x="0.0" old_y="100.0" type="priority" weight_num="3.0" weight_sum="0.0" x="0.0" y="100.0" />
    <node avg_slowdown_ratio="0.0" id="node_00x02" junction="True" old_x="0.0" old_y="200.0" type="priority" weight_num="3.0" weight_sum="0.0" x="0.0" y="200.0" />
    <node avg_slowdown_ratio="0.0" id="node_00x03" junction="True" old_x="0.0" old_y="300.0" type="priority" weight_num="3.0" weight_sum="0.0" x="0.0" y="300.0" />
    <node avg_slowdown_ratio="0.0" id="node_00x04" junction="True" old_x="0.0" old_y="400.0" type="priority" weight_num="3.0" weight_sum="0.0" x="0.0" y="400.0" />
    <node avg_slowdown_ratio="0.0" id="node_00x05" junction="True" old_x="0.0" old_y="500.0" type="priority" weight_num="3.0" weight_sum="0.0" x="0.0" y="500.0" />
    <node avg_slowdown_ratio="0.0" id="node_00x06" junction="True" old_x="0.0" old_y="600.0" type="priority" weight_num="3.0" weight_sum="0.0" x="-6.57111133542" x_displacement_sum="-6.57111133542" y="593.428888665" y_displacement_sum="-6.57111133542" />
    <node avg_slowdown_ratio="0.0" id="node_00x07" junction="True" old_x="0.0" old_y="700.0" type="priority" weight_num="3.0" weight_sum="0.0" x="-58.7253414264" x_displacement_sum="-58.7253414264" y="649.663993063" y_displacement_sum="-50.3360069369" />
    <node avg_slowdown_ratio="0.0" id="node_00x08" junction="True" old_x="0.0" old_y="800.0" type="priority" weight_num="3.0" weight_sum="0.0" x="-113.102567081" x_displacement_sum="-113.102567081" y="719.212452085" y_displacement_sum="-80.787547915" />
    <node avg_slowdown_ratio="0.0" id="node_00x09" junction="True" old_x="0.0" old_y="900.0" type="priority" weight_num="3.0" weight_sum="0.0" x="-167.62518592" x_displacement_sum="-167.62518592" y="804.214179475" y_displacement_sum="-95.7858205255" />
    <node avg_slowdown_ratio="0.0" id="node_00x10" junction="True" old_x="0.0" old_y="1000.0" type="priority" weight_num="3.0" weight_sum="0.0" x="-218.514630626" x_displacement_sum="-218.514630626" y="906.350872589" y_displacement_sum="-93.6491274111" />
    <node avg_slowdown_ratio="0.0" id="node_00x11" junction="True" old_x="0.0" old_y="1100.0" type="priority" weight_num="3.0" weight_sum="0.0" x="-260.878517502" x_displacement_sum="-260.878517502" y="1025.46328071" y_displacement_sum="-74.5367192862" />
    <node avg_slowdown_ratio="0.0" id="node_00x12" junction="True" old_x="0.0" old_y="1200.0" type="priority" weight_num="3.0" weight_sum="0.0" x="-289.259468626" x_displacement_sum="-289.259468626" y="1158.67721877" y_displacement_sum="-41.3227812323" />
    <node avg_slowdown_ratio="0.0" id="node_00x13" junction="True" old_x="0.0" old_y="1300.0" type="priority" weight_num="3.0" weight_sum="0.0" x="-299.286224126" x_displacement_sum="-299.286224126" y="1300.0" y_displacement_sum="0.0" />
    <node avg_slowdown_ratio="0.0" id="node_00x14" junction="True" old_x="0.0" old_y="1400.0" type="priority" weight_num="3.0" weight_sum="0.0" x="-289.259468626" x_displacement_sum="-289.259468626" y="1441.32278123" y_displacement_sum="41.3227812323" />
    <node avg_slowdown_ratio="0.0" id="node_00x15" junction="True" old_x="0.0" old_y="1500.0" type="priority" weight_num="3.0" weight_sum="0.0" x="-260.878517502" x_displacement_sum="-260.878517502" y="1574.53671929" y_displacement_sum="74.5367192862" />
    <node avg_slowdown_ratio="0.0" id="node_00x16" junction="True" old_x="0.0" old_y="1600.0" type="priority" weight_num="3.0" weight_sum="0.0" x="-218.514630626" x_displacement_sum="-218.514630626" y="1693.64912741" y_displacement_sum="93.6491274111" />
    <node avg_slowdown_ratio="0.0" id="node_00x17" junction="True" old_x="0.0" old_y="1700.0" type="priority" weight_num="3.0" weight_sum="0.0" x="-167.62518592" x_displacement_sum="-167.62518592" y="1795.78582053" y_displacement_sum="95.7858205255" />
    <node avg_slowdown_ratio="0.0" id="node_00x18" junction="True" old_x="0.0" old_y="1800.0" type="priority" weight_num="3.0" weight_sum="0.0" x="-113.102567081" x_displacement_sum="-113.102567081" y="1880.78754792" y_displacement_sum="80.787547915" />
    <node avg_slowdown_ratio="0.0" id="node_00x19" junction="True" old_x="0.0" old_y="1900.0" type="priority" weight_num="3.0" weight_sum="0.0" x="-58.7253414264" x_displacement_sum="-58.7253414264" y="1950.33600694" y_displacement_sum="50.3360069369" />
    <node avg_slowdown_ratio="0.0" id="node_00x20" junction="True" old_x="0.0" old_y="2000.0" type="priority" weight_num="2.0" weight_sum="0.0" x="-6.57111133542" x_displacement_sum="-6.57111133542" y="2006.57111134" y_displacement_sum="6.57111133542" />
    <node avg_slowdown_ratio="0.0" id="node_01x00" junction="True" old_x="100.0" old_y="0.0" type="priority" weight_num="3.0" weight_sum="0.0" x="100.0" y="0.0" />
    <node avg_slowdown_ratio="0.0" id="node_01x01" junction="True" old_x="100.0" old_y="100.0" type="priority" weight_num="4.0" weight_sum="0.0" x="100.0" y="100.0" />
    <node avg_slowdown_ratio="0.0" id="node_01x02" junction="True" old_x="100.0" old_y="200.0" type="priority" weight_num="4.0" weight_sum="0.0" x="100.0" y="200.0" />
    <node avg_slowdown_ratio="0.0" id="node_01x03" junction="True" old_x="100.0" old_y="300.0" type="priority" weight_num="4.0" weight_sum="0.0" x="100.0" y="300.0" />
    <node avg_slowdown_ratio="0.0" id="node_01x04" junction="True" old_x="100.0" old_y="400.0" type="priority" weight_num="4.0" weight_sum="0.0" x="100.0" y="400.0" />
    <node avg_slowdown_ratio="0.0" id="node_01x05" junction="True" old_x="100.0" old_y="500.0" type="priority" weight_num="4.0" weight_sum="0.0" x="100.0" y="500.0" />
    <node avg_slowdown_ratio="0.0" id="node_01x06" junction="True" old_x="100.0" old_y="600.0" type="priority" weight_num="4.0" weight_sum="0.0" x="49.6639930631" x_displacement_sum="-50.3360069369" y="541.274658574" y_displacement_sum="-58.7253414264" />
    <node avg_slowdown_ratio="0.0" id="node_01x07" junction="True" old_x="100.0" old_y="700.0" type="priority" weight_num="4.0" weight_sum="0.0" x="-6.630549994" x_displacement_sum="-106.630549994" y="593.369450006" y_displacement_sum="-106.630549994" />
    <node avg_slowdown_ratio="0.0" id="node_01x08" junction="True" old_x="100.0" old_y="800.0" type="priority" weight_num="4.0" weight_sum="0.0" x="-67.656090072" x_displacement_sum="-167.656090072" y="660.286591607" y_displacement_sum="-139.713408393" />
    <node avg_slowdown_ratio="0.0" id="node_01x09" junction="True" old_x="100.0" old_y="900.0" type="priority" weight_num="4.0" weight_sum="0.0" x="-131.485587583" x_displacement_sum="-231.485587583" y="745.676274945" y_displacement_sum="-154.323725055" />
    <node avg_slowdown_ratio="0.0" id="node_01x10" junction="True" old_x="100.0" old_y="1000.0" type="priority" weight_num="4.0" weight_sum="0.0" x="-193.788172203" x_displacement_sum="-293.788172203" y="853.105913898" y_displacement_sum="-146.894086102" />
    <node avg_slowdown_ratio="0.0" id="node_01x11" junction="True" old_x="100.0" old_y="1100.0" type="priority" weight_num="4.0" weight_sum="0.0" x="-248.017064307" x_displacement_sum="-348.017064307" y="983.994311898" y_displacement_sum="-116.005688102" />
    <node avg_slowdown_ratio="0.0" id="node_01x12" junction="True" old_x="100.0" old_y="1200.0" type="priority" weight_num="4.0" weight_sum="0.0" x="-285.707244948" x_displacement_sum="-385.707244948" y="1135.71545918" y_displacement_sum="-64.2845408247" />
    <node avg_slowdown_ratio="0.0" id="node_01x13" junction="True" old_x="100.0" old_y="1300.0" type="priority" weight_num="4.0" weight_sum="0.0" x="-299.333777482" x_displacement_sum="-399.333777482" y="1300.0" y_displacement_sum="0.0" />
    <node avg_slowdown_ratio="0.0" id="node_01x14" junction="True" old_x="100.0" old_y="1400.0" type="priority" weight_num="4.0" weight_sum="0.0" x="-285.707244948" x_displacement_sum="-385.707244948" y="1464.28454082" y_displacement_sum="64.2845408247" />
    <node avg_slowdown_ratio="0.0" id="node_01x15" junction="True" old_x="100.0" old_y="1500.0" type="priority" weight_num="4.0" weight_sum="0.0" x="-248.017064307" x_displacement_sum="-348.017064307" y="1616.0056881" y_displacement_sum="116.005688102" />
    <node avg_slowdown_ratio="0.0" id="node_01x16" junction="True" old_x="100.0" old_y="1600.0" type="priority" weight_num="4.0" weight_sum="0.0" x="-193.788172203" x_displacement_sum="-293.788172203" y="1746.8940861" y_displacement_sum="146.894086102" />
    <node avg_slowdown_ratio="0.0" id="node_01x17" junction="True" old_x="100.0" old_y="1700.0" type="priority" weight_num="4.0" weight_sum="0.0" x="-131.485587583" x_displacement_sum="-231.485587583" y="1854.32372506" y_displacement_sum="154.323725055" />
    <node avg_slowdown_ratio="0.0" id="node_01x18" junction="True" old_x="100.0" old_y="1800.0" type="priority" weight_num="4.0" weight_sum="0.0" x="-67.656090072" x_displacement_sum="-167.656090072" y="1939.71340839" y_displacement_sum="139.713408393" />
    <node avg_slowdown_ratio="0.0" id="node_01x19" junction="True" old_x="100.0" old_y="1900.0" type="priority" weight_num="4.0" weight_sum="0.0" x="-6.630549994" x_displacement_sum="-106.630549994" y="2006.63054999" y_displacement_sum="106.630549994" />
    <node avg_slowdown_ratio="0.0" id="node_01x20" junction="True" old_x="100.0" old_y="2000.0" type="priority" weight_num="3.0" weight_sum="0.0" x="49.6639930631" x_displacement_sum="-50.3360069369" y="2058.72534143" y_displacement_sum="58.7253414264" />
    <node avg_slowdown_ratio="0.0" id="node_02x00" junction="True" old_x="200.0" old_y="0.0" type="priority" weight_num="3.0" weight_sum="0.0" x="200.0" y="0.0" />
    <node avg_slowdown_ratio="0.0" id="node_02x01" junction="True" old_x="200.0" old_y="100.0" type="priority" weight_num="4.0" weight_sum="0.0" x="200.0" y="100.0" />
    <node avg_slowdown_ratio="0.0" id="node_02x02" junction="True" old_x="200.0" old_y="200.0" type="priority" weight_num="4.0" weight_sum="0.0" x="200.0" y="200.0" />
    <node avg_slowdown_ratio="0.0" id="node_02x03" junction="True" old_x="200.0" old_y="300.0" type="priority" weight_num="4.0" weight_sum="0.0" x="200.0" y="300.0" />
    <node avg_slowdown_ratio="0.0" id="node_02x04" junction="True" old_x="200.0" old_y="400.0" type="priority" weight_num="4.0" weight_sum="0.0" x="200.0" y="400.0" />
    <node avg_slowdown_ratio="0.0" id="node_02x05" junction="True" old_x="200.0" old_y="500.0" type="priority" weight_num="4.0" weight_sum="0.0" x="170.395085266" x_displacement_sum="-29.6049147336" y="452.632136426" y_displacement_sum="-47.3678635738" />
    <node avg_slowdown_ratio="0.0" id="node_02x06" junction="True" old_x="200.0" old_y="600.0" type="priority" weight_num="4.0" weight_sum="0.0" x="119.212452085" x_displacement_sum="-80.787547915" y="486.897432919" y_displacement_sum="-113.102567081" />
    <node avg_slowdown_ratio="0.0" id="node_02x07" junction="True" old_x="200.0" old_y="700.0" type="priority" weight_num="4.0" weight_sum="0.0" x="60.286591607" x_displacement_sum="-139.713408393" y="532.343909928" y_displacement_sum="-167.656090072" />
    <node avg_slowdown_ratio="0.0" id="node_02x08" junction="True" old_x="200.0" old_y="800.0" type="priority" weight_num="4.0" weight_sum="0.0" x="-6.613906162" x_displacement_sum="-206.613906162" y="593.386093838" y_displacement_sum="-206.613906162" />
    <node avg_slowdown_ratio="0.0" id="node_02x09" junction="True" old_x="200.0" old_y="900.0" type="priority" weight_num="4.0" weight_sum="0.0" x="-80.274656679" x_displacement_sum="-280.274656679" y="675.780274657" y_displacement_sum="-224.219725343" />
    <node avg_slowdown_ratio="0.0" id="node_02x10" junction="True" old_x="200.0" old_y="1000.0" type="priority" weight_num="4.0" weight_sum="0.0" x="-156.898029135" x_displacement_sum="-356.898029135" y="785.861182519" y_displacement_sum="-214.138817481" />
    <node avg_slowdown_ratio="0.0" id="node_02x11" junction="True" old_x="200.0" old_y="1100.0" type="priority" weight_num="4.0" weight_sum="0.0" x="-227.815921321" x_displacement_sum="-427.815921321" y="928.873631472" y_displacement_sum="-171.126368528" />
    <node avg_slowdown_ratio="0.0" id="node_02x12" junction="True" old_x="200.0" old_y="1200.0" type="priority" weight_num="4.0" weight_sum="0.0" x="-245.32627866" x_displacement_sum="-445.32627866" y="1110.93474427" y_displacement_sum="-89.0652557319" />
    <node avg_slowdown_ratio="0.0" id="node_02x13" junction="True" old_x="200.0" old_y="1300.0" type="priority" weight_num="4.0" weight_sum="0.0" x="-247.142286171" x_displacement_sum="-447.142286171" y="1300.0" y_displacement_sum="0.0" />
    <node avg_slowdown_ratio="0.0" id="node_02x14" junction="True" old_x="200.0" old_y="1400.0" type="priority" weight_num="4.0" weight_sum="0.0" x="-245.32627866" x_displacement_sum="-445.32627866" y="1489.06525573" y_displacement_sum="89.0652557319" />
    <node avg_slowdown_ratio="0.0" id="node_02x15" junction="True" old_x="200.0" old_y="1500.0" type="priority" weight_num="4.0" weight_sum="0.0" x="-227.815921321" x_displacement_sum="-427.815921321" y="1671.12636853" y_displacement_sum="171.126368528" />
    <node avg_slowdown_ratio="0.0" id="node_02x16" junction="True" old_x="200.0" old_y="1600.0" type="priority" weight_num="4.0" weight_sum="0.0" x="-156.898029135" x_displacement_sum="-356.898029135" y="1814.13881748" y_displacement_sum="214.138817481" />
    <node avg_slowdown_ratio="0.0" id="node_02x17" junction="True" old_x="200.0" old_y="1700.0" type="priority" weight_num="4.0" weight_sum="0.0" x="-80.274656679" x_displacement_sum="-280.274656679" y="1924.21972534" y_displacement_sum="224.219725343" />
    <node avg_slowdown_ratio="0.0" id="node_02x18" junction="True" old_x="200.0" old_y="1800.0" type="priority" weight_num="4.0" weight_sum="0.0" x="-6.613906162" x_displacement_sum="-206.613906162" y="2006.61390616" y_displacement_sum="206.613906162" />
    <node avg_slowdown_ratio="0.0" id="node_02x19" junction="True" old_x="200.0" old_y="1900.0" type="priority" weight_num="4.0" weight_sum="0.0" x="60.286591607" x_displacement_sum="-139.713408393" y="2067.65609007" y_displacement_sum="167.656090072" />
    <node avg_slowdown_ratio="0.0" id="node_02x20" junction="True" old_x="200.0" old_y="2000.0" type="priority" weight_num="3.0" weight_sum="0.0" x="119.212452085" x_displacement_sum="-80.787547915" y="2113.10256708" y_displacement_sum="113.102567081" />
    <node avg_slowdown_ratio="0.0" id="node_03x00" junction="True" old_x="300.0" old_y="0.0" type="priority" weight_num="3.0" weight_sum="0.0" x="300.0" y="0.0" />
    <node avg_slowdown_ratio="0.0" id="node_03x01" junction="True" old_x="300.0" old_y="100.0" type="priority" weight_num="4.0" weight_sum="0.0" x="300.0" y="100.0" />
    <node avg_slowdown_ratio="0.0" id="node_03x02" junction="True" old_x="300.0" old_y="200.0" type="priority" weight_num="4.0" weight_sum="0.0" x="300.0" y="200.0" />
    <node avg_slowdown_ratio="0.0" id="node_03x03" junction="True" old_x="300.0" old_y="300.0" type="priority" weight_num="4.0" weight_sum="0.0" x="300.0" y="300.0" />
    <node avg_slowdown_ratio="0.0" id="node_03x04" junction="True" old_x="300.0" old_y="400.0" type="priority" weight_num="4.0" weight_sum="0.0" x="294.155844156" x_displacement_sum="-5.84415584416" y="386.850649351" y_displacement_sum="-13.1493506494" />
    <node avg_slowdown_ratio="0.0" id="node_03x05" junction="True" old_x="300.0" old_y="500.0" type="priority" weight_num="4.0" weight_sum="0.0" x="253.122556139" x_displacement_sum="-46.877443861" y="406.245112278" y_displacement_sum="-93.754887722" />
    <node avg_slowdown_ratio="0.0" id="node_03x06" junction="True" old_x="300.0" old_y="600.0" type="priority" weight_num="4.0" weight_sum="0.0" x="204.214179474" x_displacement_sum="-95.7858205255" y="432.37481408" y_displacement_sum="-167.62518592" />
    <node avg_slowdown_ratio="0.0" id="node_03x07" junction="True" old_x="300.0" old_y="700.0" type="priority" weight_num="4.0" weight_sum="0.0" x="145.676274945" x_displacement_sum="-154.323725055" y="468.514412417" y_displacement_sum="-231.485587583" />
    <node avg_slowdown_ratio="0.0" id="node_03x08" junction="True" old_x="300.0" old_y="800.0" type="priority" weight_num="4.0" weight_sum="0.0" x="75.780274657" x_displacement_sum="-224.219725343" y="519.725343321" y_displacement_sum="-280.274656679" />
    <node avg_slowdown_ratio="0.0" id="node_03x09" junction="True" old_x="300.0" old_y="900.0" type="priority" weight_num="4.0" weight_sum="0.0" x="-6.588941883" x_displacement_sum="-306.588941883" y="593.411058117" y_displacement_sum="-306.588941883" />
    <node avg_slowdown_ratio="0.0" id="node_03x10" junction="True" old_x="300.0" old_y="1000.0" type="priority" weight_num="4.0" weight_sum="0.0" x="-57.713828937" x_displacement_sum="-357.713828937" y="731.714628297" y_displacement_sum="-268.285371703" />
    <node avg_slowdown_ratio="0.0" id="node_03x11" junction="True" old_x="300.0" old_y="1100.0" type="priority" weight_num="4.0" weight_sum="0.0" x="-65.139664804" x_displacement_sum="-365.139664804" y="917.430167598" y_displacement_sum="-182.569832402" />
    <node avg_slowdown_ratio="0.0" id="node_03x12" junction="True" old_x="300.0" old_y="1200.0" type="priority" weight_num="4.0" weight_sum="0.0" x="-69.752787203" x_displacement_sum="-369.752787203" y="1107.5618032" y_displacement_sum="-92.4381968008" />
    <node avg_slowdown_ratio="0.0" id="node_03x13" junction="True" old_x="300.0" old_y="1300.0" type="priority" weight_num="4.0" weight_sum="0.0" x="-71.321508868" x_displacement_sum="-371.321508868" y="1300.0" y_displacement_sum="0.0" />
    <node avg_slowdown_ratio="0.0" id="node_03x14" junction="True" old_x="300.0" old_y="1400.0" type="priority" weight_num="4.0" weight_sum="0.0" x="-69.752787203" x_displacement_sum="-369.752787203" y="1492.4381968" y_displacement_sum="92.4381968008" />
    <node avg_slowdown_ratio="0.0" id="node_03x15" junction="True" old_x="300.0" old_y="1500.0" type="priority" weight_num="4.0" weight_sum="0.0" x="-65.139664804" x_displacement_sum="-365.139664804" y="1682.5698324" y_displacement_sum="182.569832402" />
    <node avg_slowdown_ratio="0.0" id="node_03x16" junction="True" old_x="300.0" old_y="1600.0" type="priority" weight_num="4.0" weight_sum="0.0" x="-57.713828937" x_displacement_sum="-357.713828937" y="1868.2853717" y_displacement_sum="268.285371703" />
    <node avg_slowdown_ratio="0.0" id="node_03x17" junction="True" old_x="300.0" old_y="1700.0" type="priority" weight_num="4.0" weight_sum="0.0" x="-6.588941883" x_displacement_sum="-306.588941883" y="2006.58894188" y_displacement_sum="306.588941883" />
    <node avg_slowdown_ratio="0.0" id="node_03x18" junction="True" old_x="300.0" old_y="1800.0" type="priority" weight_num="4.0" weight_sum="0.0" x="75.780274657" x_displacement_sum="-224.219725343" y="2080.27465668" y_displacement_sum="280.274656679" />
    <node avg_slowdown_ratio="0.0" id="node_03x19" junction="True" old_x="300.0" old_y="1900.0" type="priority" weight_num="4.0" weight_sum="0.0" x="145.676274945" x_displacement_sum="-154.323725055" y="2131.48558758" y_displacement_sum="231.485587583" />
    <node avg_slowdown_ratio="0.0" id="node_03x20" junction="True" old_x="300.0" old_y="2000.0" type="priority" weight_num="3.0" weight_sum="0.0" x="204.214179474" x_displacement_sum="-95.7858205255" y="2167.62518592" y_displacement_sum="167.62518592" />
    <node avg_slowdown_ratio="0.0" id="node_04x00" junction="True" old_x="400.0" old_y="0.0" type="priority" weight_num="3.0" weight_sum="0.0" x="400.0" y="0.0" />
    <node avg_slowdown_ratio="0.0" id="node_04x01" junction="True" old_x="400.0" old_y="100.0" type="priority" weight_num="4.0" weight_sum="0.0" x="400.0" y="100.0" />
    <node avg_slowdown_ratio="0.0" id="node_04x02" junction="True" old_x="400.0" old_y="200.0" type="priority" weight_num="4.0" weight_sum="0.0" x="400.0" y="200.0" />
    <node avg_slowdown_ratio="0.0" id="node_04x03" junction="True" old_x="400.0" old_y="300.0" type="priority" weight_num="4.0" weight_sum="0.0" x="386.850649351" x_displacement_sum="-13.1493506494" y="294.155844156" y_displacement_sum="-5.84415584416" />
    <node avg_slowdown_ratio="0.0" id="node_04x04" junction="True" old_x="400.0" old_y="400.0" type="priority" weight_num="4.0" weight_sum="0.0" x="336.043817148" x_displacement_sum="-63.9561828523" y="336.043817148" y_displacement_sum="-63.9561828523" />
    <node avg_slowdown_ratio="0.0" id="node_04x05" junction="True" old_x="400.0" old_y="500.0" type="priority" weight_num="4.0" weight_sum="0.0" x="273.618796612" x_displacement_sum="-126.381203388" y="347.548816401" y_displacement_sum="-152.451183599" />
    <node avg_slowdown_ratio="0.0" id="node_04x06" junction="True" old_x="400.0" old_y="600.0" type="priority" weight_num="4.0" weight_sum="0.0" x="213.192629375" x_displacement_sum="-186.807370625" y="371.134453461" y_displacement_sum="-228.865546539" />
    <node avg_slowdown_ratio="0.0" id="node_04x07" junction="True" old_x="400.0" old_y="700.0" type="priority" weight_num="4.0" weight_sum="0.0" x="153.772136416" x_displacement_sum="-246.227863584" y="406.211827797" y_displacement_sum="-293.788172203" />
    <node avg_slowdown_ratio="0.0" id="node_04x08" junction="True" old_x="400.0" old_y="800.0" type="priority" weight_num="4.0" weight_sum="0.0" x="92.702939306" x_displacement_sum="-307.297060694" y="453.452886778" y_displacement_sum="-346.547113222" />
    <node avg_slowdown_ratio="0.0" id="node_04x09" junction="True" old_x="400.0" old_y="900.0" type="priority" weight_num="4.0" weight_sum="0.0" x="56.210617892" x_displacement_sum="-343.789382108" y="559.064840042" y_displacement_sum="-340.935159958" />
    <node avg_slowdown_ratio="0.0" id="node_04x10" junction="True" old_x="400.0" old_y="1000.0" type="priority" weight_num="4.0" weight_sum="0.0" x="75.914162908" x_displacement_sum="-324.085837092" y="739.87034576" y_displacement_sum="-260.12965424" />
    <node avg_slowdown_ratio="0.0" id="node_04x11" junction="True" old_x="400.0" old_y="1100.0" type="priority" weight_num="4.0" weight_sum="0.0" x="104.644440925" x_displacement_sum="-295.355559075" y="917.70668356" y_displacement_sum="-182.29331644" />
    <node avg_slowdown_ratio="0.0" id="node_04x12" junction="True" old_x="400.0" old_y="1200.0" type="priority" weight_num="4.0" weight_sum="0.0" x="113.933649289" x_displacement_sum="-286.066350711" y="1104.64454976" y_displacement_sum="-95.355450237" />
    <node avg_slowdown_ratio="0.0" id="node_04x13" junction="True" old_x="400.0" old_y="1300.0" type="priority" weight_num="4.0" weight_sum="0.0" x="112.691538974" x_displacement_sum="-287.308461026" y="1300.0" y_displacement_sum="0.0" />
    <node avg_slowdown_ratio="0.0" id="node_04x14" junction="True" old_x="400.0" old_y="1400.0" type="priority" weight_num="4.0" weight_sum="0.0" x="113.933649289" x_displacement_sum="-286.066350711" y="1495.35545024" y_displacement_sum="95.355450237" />
    <node avg_slowdown_ratio="0.0" id="node_04x15" junction="True" old_x="400.0" old_y="1500.0" type="priority" weight_num="4.0" weight_sum="0.0" x="117.793791574" x_displacement_sum="-282.206208426" y="1688.13747228" y_displacement_sum="188.137472284" />
    <node avg_slowdown_ratio="0.0" id="node_04x16" junction="True" old_x="400.0" old_y="1600.0" type="priority" weight_num="4.0" weight_sum="0.0" x="123.881300047" x_displacement_sum="-276.118699953" y="1876.11869995" y_displacement_sum="276.118699953" />
    <node avg_slowdown_ratio="0.0" id="node_04x17" junction="True" old_x="400.0" old_y="1700.0" type="priority" weight_num="4.0" weight_sum="0.0" x="131.714628297" x_displacement_sum="-268.285371703" y="2057.71382894" y_displacement_sum="357.713828937" />
    <node avg_slowdown_ratio="0.0" id="node_04x18" junction="True" old_x="400.0" old_y="1800.0" type="priority" weight_num="4.0" weight_sum="0.0" x="185.861182519" x_displacement_sum="-214.138817481" y="2156.89802913" y_displacement_sum="356.898029135" />
    <node avg_slowdown_ratio="0.0" id="node_04x19" junction="True" old_x="400.0" old_y="1900.0" type="priority" weight_num="4.0" weight_sum="0.0" x="253.105913898" x_displacement_sum="-146.894086102" y="2193.7881722" y_displacement_sum="293.788172203" />
    <node avg_slowdown_ratio="0.0" id="node_04x20" junction="True" old_x="400.0" old_y="2000.0" type="priority" weight_num="3.0" weight_sum="0.0" x="306.350872589" x_displacement_sum="-93.6491274111" y="2218.51463063" y_displacement_sum="218.514630626" />
    <node avg_slowdown_ratio="0.0" id="node_05x00" junction="True" old_x="500.0" old_y="0.0" type="priority" weight_num="3.0" weight_sum="0.0" x="500.0" y="0.0" />
    <node avg_slowdown_ratio="0.0" id="node_05x01" junction="True" old_x="500.0" old_y="100.0" type="priority" weight_num="4.0" weight_sum="0.0" x="500.0" y="100.0" />
    <node avg_slowdown_ratio="0.0" id="node_05x02" junction="True" old_x="500.0" old_y="200.0" type="priority" weight_num="4.0" weight_sum="0.0" x="452.632136426" x_displacement_sum="-47.3678635738" y="170.395085266" y_displacement_sum="-29.6049147336" />
    <node avg_slowdown_ratio="0.0" id="node_05x03" junction="True" old_x="500.0" old_y="300.0" type="priority" weight_num="4.0" weight_sum="0.0" x="406.245112278" x_displacement_sum="-93.754887722" y="253.122556139" y_displacement_sum="-46.877443861" />
    <node avg_slowdown_ratio="0.0" id="node_05x04" junction="True" old_x="500.0" old_y="400.0" type="priority" weight_num="4.0" weight_sum="0.0" x="347.548816401" x_displacement_sum="-152.451183599" y="273.618796612" y_displacement_sum="-126.381203388" />
    <node avg_slowdown_ratio="0.0" id="node_05x05" junction="True" old_x="500.0" old_y="500.0" type="priority" weight_num="4.0" weight_sum="0.0" x="288.172564227" x_displacement_sum="-211.827435773" y="288.172564226" y_displacement_sum="-211.827435774" />
    <node avg_slowdown_ratio="0.0" id="node_05x06" junction="True" old_x="500.0" old_y="600.0" type="priority" weight_num="4.0" weight_sum="0.0" x="233.891639663" x_displacement_sum="-266.108360337" y="315.175027367" y_displacement_sum="-284.824972633" />
    <node avg_slowdown_ratio="0.0" id="node_05x07" junction="True" old_x="500.0" old_y="700.0" type="priority" weight_num="4.0" weight_sum="0.0" x="184.74374982" x_displacement_sum="-315.25625018" y="351.982935693" y_displacement_sum="-348.017064307" />
    <node avg_slowdown_ratio="0.0" id="node_05x08" junction="True" old_x="500.0" old_y="800.0" type="priority" weight_num="4.0" weight_sum="0.0" x="137.301990421" x_displacement_sum="-362.698009579" y="396.13053381" y_displacement_sum="-403.86946619" />
    <node avg_slowdown_ratio="0.0" id="node_05x09" junction="True" old_x="500.0" old_y="900.0" type="priority" weight_num="4.0" weight_sum="0.0" x="147.968218979" x_displacement_sum="-352.031781021" y="577.225822351" y_displacement_sum="-322.774177649" />
    <node avg_slowdown_ratio="0.0" id="node_05x10" junction="True" old_x="500.0" old_y="1000.0" type="priority" weight_num="4.0" weight_sum="0.0" x="176.190013096" x_displacement_sum="-323.809986904" y="768.670984556" y_displacement_sum="-231.329015444" />
    <node avg_slowdown_ratio="0.0" id="node_05x11" junction="True" old_x="500.0" old_y="1100.0" type="priority" weight_num="4.0" weight_sum="0.0" x="213.806949734" x_displacement_sum="-286.193050266" y="954.439281317" y_displacement_sum="-145.560718683" />
    <node avg_slowdown_ratio="0.0" id="node_05x12" junction="True" old_x="500.0" old_y="1200.0" type="priority" weight_num="4.0" weight_sum="0.0" x="257.457873691" x_displacement_sum="-242.542126309" y="1132.01778337" y_displacement_sum="-67.9822166337" />
    <node avg_slowdown_ratio="0.0" id="node_05x13" junction="True" old_x="500.0" old_y="1300.0" type="priority" weight_num="4.0" weight_sum="0.0" x="303.898050975" x_displacement_sum="-196.101949025" y="1300.0" y_displacement_sum="0.0" />
    <node avg_slowdown_ratio="0.0" id="node_05x14" junction="True" old_x="500.0" old_y="1400.0" type="priority" weight_num="4.0" weight_sum="0.0" x="304.825737265" x_displacement_sum="-195.174262735" y="1497.58713137" y_displacement_sum="97.5871313673" />
    <node avg_slowdown_ratio="0.0" id="node_05x15" junction="True" old_x="500.0" old_y="1500.0" type="priority" weight_num="4.0" weight_sum="0.0" x="307.561837456" x_displacement_sum="-192.438162544" y="1692.43816254" y_displacement_sum="192.438162544" />
    <node avg_slowdown_ratio="0.0" id="node_05x16" junction="True" old_x="500.0" old_y="1600.0" type="priority" weight_num="4.0" weight_sum="0.0" x="311.862527716" x_displacement_sum="-188.137472284" y="1882.20620843" y_displacement_sum="282.206208426" />
    <node avg_slowdown_ratio="0.0" id="node_05x17" junction="True" old_x="500.0" old_y="1700.0" type="priority" weight_num="4.0" weight_sum="0.0" x="317.430167598" x_displacement_sum="-182.569832402" y="2065.1396648" y_displacement_sum="365.139664804" />