<?xml version='1.0' encoding='UTF-8'?>
<nodes xmlns:xsi="http://www.w3.org/2001/XMLSchema-instance" version="0.27" xsi:noNamespaceSchemaLocation="http://sumo.dlr.de/xsd/edges_file.xsd"><node avg_slowdown_ratio="0.999280057598" id="node_07x07" junction="True" old_x="700.0" old_y="700.0" type="priority" weight_num="4.0" weight_sum="3.99712023039" x="194.035672524" x_displacement_sum="-505.964327476" y="194.035672524" y_displacement_sum="-505.964327476" />
    <node avg_slowdown_ratio="0.999280057598" id="node_07x13" junction="True" old_x="700.0" old_y="1300.0" type="priority" weight_num="4.0" weight_sum="3.99712023039" x="194.035672524" x_displacement_sum="-505.964327476" y="1805.96432748" y_displacement_sum="505.964327476" />
    <node avg_slowdown_ratio="0.999280057598" id="node_13x07" junction="True" old_x="1300.0" old_y="700.0" type="priority" weight_num="4.0" weight_sum="3.99712023039" x="1805.96432748" x_displacement_sum="505.964327476" y="194.035672524" y_displacement_sum="-505.964327476" />
    <node avg_slowdown_ratio="0.999280057598" id="node_13x13" junction="True" old_x="1300.0" old_y="1300.0" type="priority" weight_num="4.0" weight_sum="3.99712023039" x="1805.96432748" x_displacement_sum="505.964327476" y="1805.96432748" y_displacement_sum="505.964327476" />
    <node avg_slowdown_ratio="0.0" id="node_00x00" junction="True" old_x="0.0" old_y="0.0" type="priority" weight_num="2.0" weight_sum="0.0" x="-6.57111133542" x_displacement_sum="-6.57111133542" y="-6.57111133542" y_displacement_sum="-6.57111133542" />
    <node avg_slowdown_ratio="0.0" id="node_00x01" junction="True" old_x="0.0" old_y="100.0" type="priority" weight_num="3.0" weight_sum="0.0" x="-58.7253414264" x_displacement_sum="-58.7253414264" y="49.6639930631" y_displacement_sum="-50.3360069369" />
    <node avg_slowdown_ratio="0.0" id="node_00x02" junction="True" old_x="0.0" old_y="200.0" type="priority" weight_num="3.0" weight_sum="0.0" x="-113.102567081" x_displacement_sum="-113.102567081" y="119.212452085" y_displacement_sum="-80.787547915" />
    <node avg_slowdown_ratio="0.0" id="node_00x03" junction="True" old_x="0.0" old_y="300.0" type="priority" weight_num="3.0" weight_sum="0.0" x="-167.62518592" x_displacement_sum="-167.62518592" y="204.214179474" y_displacement_sum="-95.7858205255" />
    <node avg_slowdown_ratio="0.0" id="node_00x04" junction="True" old_x="0.0" old_y="400.0" type="priority" weight_num="3.0" weight_sum="0.0" x="-218.514630626" x_displacement_sum="-218.514630626" y="306.350872589" y_displacement_sum="-93.6491274111" />
    <node avg_slowdown_ratio="0.0" id="node_00x05" junction="True" old_x="0.0" old_y="500.0" type="priority" weight_num="3.0" weight_sum="0.0" x="-260.878517502" x_displacement_sum="-260.878517502" y="425.463280714" y_displacement_sum="-74.5367192862" />
    <node avg_slowdown_ratio="0.0" id="node_00x06" junction="True" old_x="0.0" old_y="600.0" type="priority" weight_num="3.0" weight_sum="0.0" x="-295.830579961" x_displacement_sum="-295.830579961" y="552.106107432" y_displacement_sum="-47.8938925677" />
    <node avg_slowdown_ratio="0.0" id="node_00x07" junction="True" old_x="0.0" old_y="700.0" type="priority" weight_num="3.0" weight_sum="0.0" x="-358.011565552" x_displacement_sum="-358.011565552" y="649.663993063" y_displacement_sum="-50.3360069369" />
    <node avg_slowdown_ratio="0.0" id="node_00x08" junction="True" old_x="0.0" old_y="800.0" type="priority" weight_num="3.0" weight_sum="0.0" x="-402.362035707" x_displacement_sum="-402.362035707" y="760.535233317" y_displacement_sum="-39.4647666827" />
    <node avg_slowdown_ratio="0.0" id="node_00x09" junction="True" old_x="0.0" old_y="900.0" type="priority" weight_num="3.0" weight_sum="0.0" x="-428.503703422" x_displacement_sum="-428.503703422" y="878.750898761" y_displacement_sum="-21.2491012393" />
    <node avg_slowdown_ratio="0.0" id="node_00x10" junction="True" old_x="0.0" old_y="1000.0" type="priority" weight_num="3.0" weight_sum="0.0" x="-437.029261252" x_displacement_sum="-437.029261252" y="1000.0" y_displacement_sum="-9.09494701773e-13" />
    <node avg_slowdown_ratio="0.0" id="node_00x11" junction="True" old_x="0.0" old_y="1100.0" type="priority" weight_num="3.0" weight_sum="0.0" x="-428.503703422" x_displacement_sum="-428.503703422" y="1121.24910124" y_displacement_sum="21.2491012393" />
    <node avg_slowdown_ratio="0.0" id="node_00x12" junction="True" old_x="0.0" old_y="1200.0" type="priority" weight_num="3.0" weight_sum="0.0" x="-402.362035707" x_displacement_sum="-402.362035707" y="1239.46476668" y_displacement_sum="39.4647666827" />
    <node avg_slowdown_ratio="0.0" id="node_00x13" junction="True" old_x="0.0" old_y="1300.0" type="priority" weight_num="3.0" weight_sum="0.0" x="-358.011565552" x_displacement_sum="-358.011565552" y="1350.33600694" y_displacement_sum="50.3360069369" />
    <node avg_slowdown_ratio="0.0" id="node_00x14" junction="True" old_x="0.0" old_y="1400.0" type="priority" weight_num="3.0" weight_sum="0.0" x="-295.830579962" x_displacement_sum="-295.830579962" y="1447.89389257" y_displacement_sum="47.8938925678" />
    <node avg_slowdown_ratio="0.0" id="node_00x15" junction="True" old_x="0.0" old_y="1500.0" type="priority" weight_num="3.0" weight_sum="0.0" x="-260.878517502" x_displacement_sum="-260.878517502" y="1574.53671929" y_displacement_sum="74.5367192862" />
    <node avg_slowdown_ratio="0.0" id="node_00x16" junction="True" old_x="0.0" old_y="1600.0" type="priority" weight_num="3.0" weight_sum="0.0" x="-218.514630626" x_displacement_sum="-218.514630626" y="1693.64912741" y_displacement_sum="93.6491274111" />
    <node avg_slowdown_ratio="0.0" id="node_00x17" junction="True" old_x="0.0" old_y="1700.0" type="priority" weight_num="3.0" weight_sum="0.0" x="-167.62518592" x_displacement_sum="-167.62518592" y="1795.78582053" y_displacement_sum="95.7858205255" />
    <node avg_slowdown_ratio="0.0" id="node_00x18" junction="True" old_x="0.0" old_y="1800.0" type="priority" weight_num="3.0" weight_sum="0.0" x="-113.102567081" x_displacement_sum="-113.102567081" y="1880.78754792" y_displacement_sum="80.787547915" />
    <node avg_slowdown_ratio="0.0" id="node_00x19" junction="True" old_x="0.0" old_y="1900.0" type="priority" weight_num="3.0" weight_sum="0.0" x="-58.7253414264" x_displacement_sum="-58.7253414264" y="1950.33600694" y_displacement_sum="50.3360069369" />
    <node avg_slowdown_ratio="0.0" id="node_00x20" junction="True" old_x="0.0" old_y="2000.0" type="priority" weight_num="2.0" weight_sum="0.0" x="-6.57111133542" x_displacement_sum="-6.57111133542" y="2006.57111134" y_displacement_sum="6.57111133542" />
    <node avg_slowdown_ratio="0.0" id="node_01x00" junction="True" old_x="100.0" old_y="0.0" type="priority" weight_num="3.0" weight_sum="0.0" x="49.6639930631" x_displacement_sum="-50.3360069369" y="-58.7253414264" y_displacement_sum="-58.7253414264" />
    <node avg_slowdown_ratio="0.0" id="node_01x01" junction="True" old_x="100.0" old_y="100.0" type="priority" weight_num="4.0" weight_sum="0.0" x="-6.630549994" x_displacement_sum="-106.630549994" y="-6.630549994" y_displacement_sum="-106.630549994" />
    <node avg_slowdown_ratio="0.0" id="node_01x02" junction="True" old_x="100.0" old_y="200.0" type="priority" weight_num="4.0" weight_sum="0.0" x="-67.656090072" x_displacement_sum="-167.656090072" y="60.286591607" y_displacement_sum="-139.713408393" />
    <node avg_slowdown_ratio="0.0" id="node_01x03" junction="True" old_x="100.0" old_y="300.0" type="priority" weight_num="4.0" weight_sum="0.0" x="-131.485587583" x_displacement_sum="-231.485587583" y="145.676274945" y_displacement_sum="-154.323725055" />
    <node avg_slowdown_ratio="0.0" id="node_01x04" junction="True" old_x="100.0" old_y="400.0" type="priority" weight_num="4.0" weight_sum="0.0" x="-193.788172203" x_displacement_sum="-293.788172203" y="253.105913898" y_displacement_sum="-146.894086102" />
    <node avg_slowdown_ratio="0.0" id="node_01x05" junction="True" old_x="100.0" old_y="500.0" type="priority" weight_num="4.0" weight_sum="0.0" x="-248.017064307" x_displacement_sum="-348.017064307" y="383.994311898" y_displacement_sum="-116.005688102" />
    <node avg_slowdown_ratio="0.0" id="node_01x06" junction="True" old_x="100.0" old_y="600.0" type="priority" weight_num="4.0" weight_sum="0.0" x="-336.043251885" x_displacement_sum="-436.043251885" y="476.990117749" y_displacement_sum="-123.009882251" />
    <node avg_slowdown_ratio="0.0" id="node_01x07" junction="True" old_x="100.0" old_y="700.0" type="priority" weight_num="4.0" weight_sum="0.0" x="-405.964327476" x_displacement_sum="-505.964327476" y="593.369450006" y_displacement_sum="-106.630549994" />
    <node avg_slowdown_ratio="0.0" id="node_01x08" junction="True" old_x="100.0" old_y="800.0" type="priority" weight_num="4.0" weight_sum="0.0" x="-453.36333502" x_displacement_sum="-553.36333502" y="724.571132432" y_displacement_sum="-75.4288675683" />
    <node avg_slowdown_ratio="0.0" id="node_01x09" junction="True" old_x="100.0" old_y="900.0" type="priority" weight_num="4.0" weight_sum="0.0" x="-479.50265189" x_displacement_sum="-579.50265189" y="861.681963047" y_displacement_sum="-38.3180369534" />
    <node avg_slowdown_ratio="0.0" id="node_01x10" junction="True" old_x="100.0" old_y="1000.0" type="priority" weight_num="4.0" weight_sum="0.0" x="-487.576344406" x_displacement_sum="-587.576344406" y="1000.0" y_displacement_sum="4.06060962632e-10" />
    <node avg_slowdown_ratio="0.0" id="node_01x11" junction="True" old_x="100.0" old_y="1100.0" type="priority" weight_num="4.0" weight_sum="0.0" x="-479.50265189" x_displacement_sum="-579.50265189" y="1138.31803695" y_displacement_sum="38.3180369526" />
    <node avg_slowdown_ratio="0.0" id="node_01x12" junction="True" old_x="100.0" old_y="1200.0" type="priority" weight_num="4.0" weight_sum="0.0" x="-453.36333502" x_displacement_sum="-553.36333502" y="1275.42886757" y_displacement_sum="75.4288675683" />
    <node avg_slowdown_ratio="0.0" id="node_01x13" junction="True" old_x="100.0" old_y="1300.0" type="priority" weight_num="4.0" weight_sum="0.0" x="-405.964327476" x_displacement_sum="-505.964327476" y="1406.63054999" y_displacement_sum="106.630549994" />
    <node avg_slowdown_ratio="0.0" id="node_01x14" junction="True" old_x="100.0" old_y="1400.0" type="priority" weight_num="4.0" weight_sum="0.0" x="-336.043251885" x_displacement_sum="-436.043251885" y="1523.00988225" y_displacement_sum="123.009882251" />
    <node avg_slowdown_ratio="0.0" id="node_01x15" junction="True" old_x="100.0" old_y="1500.0" type="priority" weight_num="4.0" weight_sum="0.0" x="-248.017064307" x_displacement_sum="-348.017064307" y="1616.0056881" y_displacement_sum="116.005688102" />
    <node avg_slowdown_ratio="0.0" id="node_01x16" junction="True" old_x="100.0" old_y="1600.0" type="priority" weight_num="4.0" weight_sum="0.0" x="-193.788172203" x_displacement_sum="-293.788172203" y="1746.8940861" y_displacement_sum="146.894086102" />
    <node avg_slowdown_ratio="0.0" id="node_01x17" junction="True" old_x="100.0" old_y="1700.0" type="priority" weight_num="4.0" weight_sum="0.0" x="-131.485587583" x_displacement_sum="-231.485587583" y="1854.32372506" y_displacement_sum="154.323725055" />
    <node avg_slowdown_ratio="0.0" id="node_01x18" junction="True" old_x="100.0" old_y="1800.0" type="priority" weight_num="4.0" weight_sum="0.0" x="-67.656090072" x_displacement_sum="-167.656090072" y="1939.71340839" y_displacement_sum="139.713408393" />
    <node avg_slowdown_ratio="0.0" id="node_01x19" junction="True" old_x="100.0" old_y="1900.0" type="priority" weight_num="4.0" weight_sum="0.0" x="-6.630549994" x_displacement_sum="-106.630549994" y="2006.63054999" y_displacement_sum="106.630549994" />
    <node avg_slowdown_ratio="0.0" id="node_01x20" junction="True" old_x="100.0" old_y="2000.0" type="priority" weight_num="3.0" weight_sum="0.0" x="49.6639930631" x_displacement_sum="-50.3360069369" y="2058.72534143" y_displacement_sum="58.7253414264" />
    <node avg_slowdown_ratio="0.0" id="node_02x00" junction="True" old_x="200.0" old_y="0.0" type="priority" weight_num="3.0" weight_sum="0.0" x="119.212452085" x_displacement_sum="-80.787547915" y="-113.102567081" y_displacement_sum="-113.102567081" />
    <node avg_slowdown_ratio="0.0" id="node_02x01" junction="True" old_x="200.0" old_y="100.0" type="priority" weight_num="4.0" weight_sum="0.0" x="60.286591607" x_displacement_sum="-139.713408393" y="-67.656090072" y_displacement_sum="-167.656090072" />
    <node avg_slowdown_ratio="0.0" id="node_02x02" junction="True" old_x="200.0" old_y="200.0" type="priority" weight_num="4.0" weight_sum="0.0" x="-6.613906162" x_displacement_sum="-206.613906162" y="-6.613906162" y_displacement_sum="-206.613906162" />
    <node avg_slowdown_ratio="0.0" id="node_02x03" junction="True" old_x="200.0" old_y="300.0" type="priority" weight_num="4.0" weight_sum="0.0" x="-80.274656679" x_displacement_sum="-280.274656679" y="75.780274657" y_displacement_sum="-224.219725343" />
    <node avg_slowdown_ratio="0.0" id="node_02x04" junction="True" old_x="200.0" old_y="400.0" type="priority" weight_num="4.0" weight_sum="0.0" x="-156.898029135" x_displacement_sum="-356.898029135" y="185.861182519" y_displacement_sum="-214.138817481" />
    <node avg_slowdown_ratio="0.0" id="node_02x05" junction="True" old_x="200.0" old_y="500.0" type="priority" weight_num="4.0" weight_sum="0.0" x="-257.420836055" x_displacement_sum="-457.420836055" y="281.505767898" y_displacement_sum="-218.494232102" />
    <node avg_slowdown_ratio="0.0" id="node_02x06" junction="True" old_x="200.0" old_y="600.0" type="priority" weight_num="4.0" weight_sum="0.0" x="-326.113826575" x_displacement_sum="-526.113826575" y="397.832177187" y_displacement_sum="-202.167822813" />
    <node avg_slowdown_ratio="0.0" id="node_02x07" junction="True" old_x="200.0" old_y="700.0" type="priority" weight_num="4.0" weight_sum="0.0" x="-386.855694564" x_displacement_sum="-586.855694564" y="532.343909928" y_displacement_sum="-167.656090072" />
    <node avg_slowdown_ratio="0.0" id="node_02x08" junction="True" old_x="200.0" old_y="800.0" type="priority" weight_num="4.0" weight_sum="0.0" x="-451.940184822" x_displacement_sum="-651.940184822" y="682.45134957" y_displacement_sum="-117.54865043" />
    <node avg_slowdown_ratio="0.0" id="node_02x09" junction="True" old_x="200.0" old_y="900.0" type="priority" weight_num="4.0" weight_sum="0.0" x="-508.090578" x_displacement_sum="-708.090578" y="846.906643185" y_displacement_sum="-53.0933568153" />
    <node avg_slowdown_ratio="0.0" id="node_02x10" junction="True" old_x="200.0" old_y="1000.0" type="priority" weight_num="4.0" weight_sum="0.0" x="-513.79605827" x_displacement_sum="-713.79605827" y="1000.0" y_displacement_sum="2.80209633274e-10" />
    <node avg_slowdown_ratio="0.0" id="node_02x11" junction="True" old_x="200.0" old_y="1100.0" type="priority" weight_num="4.0" weight_sum="0.0" x="-508.090578" x_displacement_sum="-708.090578" y="1153.09335681" y_displacement_sum="53.0933568145" />
    <node avg_slowdown_ratio="0.0" id="node_02x12" junction="True" old_x="200.0" old_y="1200.0" type="priority" weight_num="4.0" weight_sum="0.0" x="-451.940184822" x_displacement_sum="-651.940184822" y="1317.54865043" y_displacement_sum="117.54865043" />
    <node avg_slowdown_ratio="0.0" id="node_02x13" junction="True" old_x="200.0" old_y="1300.0" type="priority" weight_num="4.0" weight_sum="0.0" x="-386.855694564" x_displacement_sum="-586.855694564" y="1467.65609007" y_displacement_sum="167.656090072" />
    <node avg_slowdown_ratio="0.0" id="node_02x14" junction="True" old_x="200.0" old_y="1400.0" type="priority" weight_num="4.0" weight_sum="0.0" x="-326.113826575" x_displacement_sum="-526.113826575" y="1602.16782281" y_displacement_sum="202.167822813" />
    <node avg_slowdown_ratio="0.0" id="node_02x15" junction="True" old_x="200.0" old_y="1500.0" type="priority" weight_num="4.0" weight_sum="0.0" x="-257.420836055" x_displacement_sum="-457.420836055" y="1718.4942321" y_displacement_sum="218.494232102" />
    <node avg_slowdown_ratio="0.0" id="node_02x16" junction="True" old_x="200.0" old_y="1600.0" type="priority" weight_num="4.0" weight_sum="0.0" x="-156.898029135" x_displacement_sum="-356.898029135" y="1814.13881748" y_displacement_sum="214.138817481" />
    <node avg_slowdown_ratio="0.0" id="node_02x17" junction="True" old_x="200.0" old_y="1700.0" type="priority" weight_num="4.0" weight_sum="0.0" x="-80.274656679" x_displacement_sum="-280.274656679" y="1924.21972534" y_displacement_sum="224.219725343" />
    <node avg_slowdown_ratio="0.0" id="node_02x18" junction="True" old_x="200.0" old_y="1800.0" type="priority" weight_num="4.0" weight_sum="0.0" x="-6.613906162" x_displacement_sum="-206.613906162" y="2006.61390616" y_displacement_sum="206.613906162" />
    <node avg_slowdown_ratio="0.0" id="node_02x19" junction="True" old_x="200.0" old_y="1900.0" type="priority" weight_num="4.0" weight_sum="0.0" x="60.286591607" x_displacement_sum="-139.713408393" y="2067.65609007" y_displacement_sum="167.656090072" />
    <node avg_slowdown_ratio="0.0" id="node_02x20" junction="True" old_x="200.0" old_y="2000.0" type="priority" weight_num="3.0" weight_sum="0.0" x="119.212452085" x_displacement_sum="-80.787547915" y="2113.10256708" y_displacement_sum="113.102567081" />
    <node avg_slowdown_ratio="0.0" id="node_03x00" junction="True" old_x="300.0" old_y="0.0" type="priority" weight_num="3.0" weight_sum="0.0" x="204.214179474" x_displacement_sum="-95.7858205255" y="-167.62518592" y_displacement_sum="-167.62518592" />
    <node avg_slowdown_ratio="0.0" id="node_03x01" junction="True" old_x="300.0" old_y="100.0" type="priority" weight_num="4.0" weight_sum="0.0" x="145.676274945" x_displacement_sum="-154.323725055" y="-131.485587583" y_displacement_sum="-231.485587583" />
    <node avg_slowdown_ratio="0.0" id="node_03x02" junction="True" old_x="300.0" old_y="200.0" type="priority" weight_num="4.0" weight_sum="0.0" x="75.780274657" x_displacement_sum="-224.219725343" y="-80.274656679" y_displacement_sum="-280.274656679" />
    <node avg_slowdown_ratio="0.0" id="node_03x03" junction="True" old_x="300.0" old_y="300.0" type="priority" weight_num="4.0" weight_sum="0.0" x="-6.588941883" x_displacement_sum="-306.588941883" y="-6.588941883" y_displacement_sum="-306.588941883" />
    <node avg_slowdown_ratio="0.0" id="node_03x04" junction="True" old_x="300.0" old_y="400.0" type="priority" weight_num="4.0" weight_sum="0.0" x="-63.557984781" x_displacement_sum="-363.557984781" y="118.565277648" y_displacement_sum="-281.434722352" />
    <node avg_slowdown_ratio="0.0" id="node_03x05" junction="True" old_x="300.0" old_y="500.0" type="priority" weight_num="4.0" weight_sum="0.0" x="-112.017108665" x_displacement_sum="-412.017108665" y="223.675279876" y_displacement_sum="-276.324720124" />
    <node avg_slowdown_ratio="0.0" id="node_03x06" junction="True" old_x="300.0" old_y="600.0" type="priority" weight_num="4.0" weight_sum="0.0" x="-165.538607729" x_displacement_sum="-465.538607729" y="339.93661728" y_displacement_sum="-260.06338272" />
    <node avg_slowdown_ratio="0.0" id="node_03x07" junction="True" old_x="300.0" old_y="700.0" type="priority" weight_num="4.0" weight_sum="0.0" x="-225.645233923" x_displacement_sum="-525.645233923" y="468.514412417" y_displacement_sum="-231.485587583" />
    <node avg_slowdown_ratio="0.0" id="node_03x08" junction="True" old_x="300.0" old_y="800.0" type="priority" weight_num="4.0" weight_sum="0.0" x="-293.972512546" x_displacement_sum="-593.972512546" y="612.163540122" y_displacement_sum="-187.836459878" />
    <node avg_slowdown_ratio="0.0" id="node_03x09" junction="True" old_x="300.0" old_y="900.0" type="priority" weight_num="4.0" weight_sum="0.0" x="-371.728606687" x_displacement_sum="-671.728606687" y="775.980890519" y_displacement_sum="-124.019109481" />
    <node avg_slowdown_ratio="0.0" id="node_03x10" junction="True" old_x="300.0" old_y="1000.0" type="priority" weight_num="4.0" weight_sum="0.0" x="-415.427657874" x_displacement_sum="-715.427657874" y="1000.0" y_displacement_sum="3.62092578143e-10" />
    <node avg_slowdown_ratio="0.0" id="node_03x11" junction="True" old_x="300.0" old_y="1100.0" type="priority" weight_num="4.0" weight_sum="0.0" x="-371.728606687" x_displacement_sum="-671.728606687" y="1224.01910948" y_displacement_sum="124.019109481" />
    <node avg_slowdown_ratio="0.0" id="node_03x12" junction="True" old_x="300.0" old_y="1200.0" type="priority" weight_num="4.0" weight_sum="0.0" x="-293.972512546" x_displacement_sum="-593.972512546" y="1387.83645988" y_displacement_sum="187.836459878" />
    <node avg_slowdown_ratio="0.0" id="node_03x13" junction="True" old_x="300.0" old_y="1300.0" type="priority" weight_num="4.0" weight_sum="0.0" x="-225.645233923" x_displacement_sum="-525.645233923" y="1531.48558758" y_displacement_sum="231.485587583" />
    <node avg_slowdown_ratio="0.0" id="node_03x14" junction="True" old_x="300.0" old_y="1400.0" type="priority" weight_num="4.0" weight_sum="0.0" x="-165.538607729" x_displacement_sum="-465.538607729" y="1660.06338272" y_displacement_sum="260.063382721" />
    <node avg_slowdown_ratio="0.0" id="node_03x15" junction="True" old_x="300.0" old_y="1500.0" type="priority" weight_num="4.0" weight_sum="0.0" x="-112.017108665" x_displacement_sum="-412.017108665" y="1776.32472012" y_displacement_sum="276.324720124" />
    <node avg_slowdown_ratio="0.0" id="node_03x16" junction="True" old_x="300.0" old_y="1600.0" type="priority" weight_num="4.0" weight_sum="0.0" x="-63.557984781" x_displacement_sum="-363.557984781" y="1881.43472235" y_displacement_sum="281.434722352" />
    <node avg_slowdown_ratio="0.0" id="node_03x17" junction="True" old_x="300.0" old_y="1700.0" type="priority" weight_num="4.0" weight_sum="0.0" x="-6.588941883" x_displacement_sum="-306.588941883" y="2006.58894188" y_displacement_sum="306.588941883" />
    <node avg_slowdown_ratio="0.0" id="node_03x18" junction="True" old_x="300.0" old_y="1800.0" type="priority" weight_num="4.0" weight_sum="0.0" x="75.780274657" x_displacement_sum="-224.219725343" y="2080.27465668" y_displacement_sum="280.274656679" />
    <node avg_slowdown_ratio="0.0" id="node_03x19" junction="True" old_x="300.0" old_y="1900.0" type="priority" weight_num="4.0" weight_sum="0.0" x="145.676274945" x_displacement_sum="-154.323725055" y="2131.48558758" y_displacement_sum="231.485587583" />
    <node avg_slowdown_ratio="0.0" id="node_03x20" junction="True" old_x="300.0" old_y="2000.0" type="priority" weight_num="3.0" weight_sum="0.0" x="204.214179474" x_displacement_sum="-95.7858205255" y="2167.62518592" y_displacement_sum="167.62518592" />
    <node avg_slowdown_ratio="0.0" id="node_04x00" junction="True" old_x="400.0" old_y="0.0" type="priority" weight_num="3.0" weight_sum="0.0" x="306.350872589" x_displacement_sum="-93.6491274111" y="-218.514630626" y_displacement_sum="-218.514630626" />
    <node avg_slowdown_ratio="0.0" id="node_04x01" junction="True" old_x="400.0" old_y="100.0" type="priority" weight_num="4.0" weight_sum="0.0" x="253.105913898" x_displacement_sum="-146.894086102" y="-193.788172203" y_displacement_sum="-293.788172203" />
    <node avg_slowdown_ratio="0.0" id="node_04x02" junction="True" old_x="400.0" old_y="200.0" type="priority" weight_num="4.0" weight_sum="0.0" x="185.861182519" x_displacement_sum="-214.138817481" y="-156.898029135" y_displacement_sum="-356.898029135" />
    <node avg_slowdown_ratio="0.0" id="node_04x03" junction="True" old_x="400.0" old_y="300.0" type="priority" weight_num="4.0" weight_sum="0.0" x="118.565277648" x_displacement_sum="-281.434722352" y="-63.557984781" y_displacement_sum="-363.557984781" />
    <node avg_slowdown_ratio="0.0" id="node_04x04" junction="True" old_x="400.0" old_y="400.0" type="priority" weight_num="4.0" weight_sum="0.0" x="59.925117195" x_displacement_sum="-340.074882805" y="59.925117195" y_displacement_sum="-340.074882805" />
    <node avg_slowdown_ratio="0.0" id="node_04x05" junction="True" old_x="400.0" old_y="500.0" type="priority" weight_num="4.0" weight_sum="0.0" x="-8.587411813" x_displacement_sum="-408.587411813" y="159.411344117" y_displacement_sum="-340.588655883" />
    <node avg_slowdown_ratio="0.0" id="node_04x06" junction="True" old_x="400.0" old_y="600.0" type="priority" weight_num="4.0" weight_sum="0.0" x="-72.873721335" x_displacement_sum="-472.873721335" y="275.779003224" y_displacement_sum="-324.220996776" />
    <node avg_slowdown_ratio="0.0" id="node_04x07" junction="True" old_x="400.0" old_y="700.0" type="priority" weight_num="4.0" weight_sum="0.0" x="-133.53632461" x_displacement_sum="-533.53632461" y="406.211827797" y_displacement_sum="-293.788172203" />
    <node avg_slowdown_ratio="0.0" id="node_04x08" junction="True" old_x="400.0" old_y="800.0" type="priority" weight_num="4.0" weight_sum="0.0" x="-193.363411405" x_displacement_sum="-593.363411405" y="548.808337015" y_displacement_sum="-251.191662985" />
    <node avg_slowdown_ratio="0.0" id="node_04x09" junction="True" old_x="400.0" old_y="900.0" type="priority" weight_num="4.0" weight_sum="0.0" x="-239.144941183" x_displacement_sum="-639.144941183" y="741.358156482" y_displacement_sum="-158.641843518" />
    <node avg_slowdown_ratio="0.0" id="node_04x10" junction="True" old_x="400.0" old_y="1000.0" type="priority" weight_num="4.0" weight_sum="0.0" x="-248.171674184" x_displacement_sum="-648.171674184" y="1000.0" y_displacement_sum="1.18053122833e-10" />
    <node avg_slowdown_ratio="0.0" id="node_04x11" junction="True" old_x="400.0" old_y="1100.0" type="priority" weight_num="4.0" weight_sum="0.0" x="-239.144941183" x_displacement_sum="-639.144941183" y="1258.64184352" y_displacement_sum="158.641843518" />
    <node avg_slowdown_ratio="0.0" id="node_04x12" junction="True" old_x="400.0" old_y="1200.0" type="priority" weight_num="4.0" weight_sum="0.0" x="-193.363411405" x_displacement_sum="-593.363411405" y="1451.19166298" y_displacement_sum="251.191662985" />
    <node avg_slowdown_ratio="0.0" id="node_04x13" junction="True" old_x="400.0" old_y="1300.0" type="priority" weight_num="4.0" weight_sum="0.0" x="-133.53632461" x_displacement_sum="-533.53632461" y="1593.7881722" y_displacement_sum="293.788172203" />
    <node avg_slowdown_ratio="0.0" id="node_04x14" junction="True" old_x="400.0" old_y="1400.0" type="priority" weight_num="4.0" weight_sum="0.0" x="-72.873721335" x_displacement_sum="-472.873721335" y="1724.22099678" y_displacement_sum="324.220996776" />
    <node avg_slowdown_ratio="0.0" id="node_04x15" junction="True" old_x="400.0" old_y="1500.0" type="priority" weight_num="4.0" weight_sum="0.0" x="-8.587411813" x_displacement_sum="-408.587411813" y="1840.58865588" y_displacement_sum="340.588655883" />
    <node avg_slowdown_ratio="0.0" id="node_04x16" junction="True" old_x="400.0" old_y="1600.0" type="priority" weight_num="4.0" weight_sum="0.0" x="59.925117195" x_displacement_sum="-340.074882805" y="1940.07488281" y_displacement_sum="340.074882805" />
    <node avg_slowdown_ratio="0.0" id="node_04x17" junction="True" old_x="400.0" old_y="1700.0" type="priority" weight_num="4.0" weight_sum="0.0" x="118.565277648" x_displacement_sum="-281.434722352" y="2063.55798478" y_displacement_sum="363.557984781" />
    <node avg_slowdown_ratio="0.0" id="node_04x18" junction="True" old_x="400.0" old_y="1800.0" type="priority" weight_num="4.0" weight_sum="0.0" x="185.861182519" x_displacement_sum="-214.138817481" y="2156.89802913" y_displacement_sum="356.898029135" />
    <node avg_slowdown_ratio="0.0" id="node_04x19" junction="True" old_x="400.0" old_y="1900.0" type="priority" weight_num="4.0" weight_sum="0.0" x="253.105913898" x_displacement_sum="-146.894086102" y="2193.7881722" y_displacement_sum="293.788172203" />
    <node avg_slowdown_ratio="0.0" id="node_04x20" junction="True" old_x="400.0" old_y="2000.0" type="priority" weight_num="3.0" weight_sum="0.0" x="306.350872589" x_displacement_sum="-93.6491274111" y="2218.51463063" y_displacement_sum="218.514630626" />
    <node avg_slowdown_ratio="0.0" id="node_05x00" junction="True" old_x="500.0" old_y="0.0" type="priority" weight_num="3.0" weight_sum="0.0" x="425.463280714" x_displacement_sum="-74.5367192862" y="-260.878517502" y_displacement_sum="-260.878517502" />
    <node avg_slowdown_ratio="0.0" id="node_05x01" junction="True" old_x="500.0" old_y="100.0" type="priority" weight_num="4.0" weight_sum="0.0" x="383.994311898" x_displacement_sum="-116.005688102" y="-248.017064307" y_displacement_sum="-348.017064307" />
    <node avg_slowdown_ratio="0.0" id="node_05x02" junction="True" old_x="500.0" old_y="200.0" type="priority" weight_num="4.0" weight_sum="0.0" x="281.505767898" x_displacement_sum="-218.494232102" y="-257.420836055" y_displacement_sum="-457.420836055" />
    <node avg_slowdown_ratio="0.0" id="node_05x03" junction="True" old_x="500.0" old_y="300.0" type="priority" weight_num="4.0" weight_sum="0.0" x="223.675279876" x_displacement_sum="-276.324720124" y="-112.017108665" y_displacement_sum="-412.017108665" />
    <node avg_slowdown_ratio="0.0" id="node_05x04" junction="True" old_x="500.0" old_y="400.0" type="priority" weight_num="4.0" weight_sum="0.0" x="159.411344117" x_displacement_sum="-340.588655883" y="-8.587411813" y_displacement_sum="-408.587411813" />
    <node avg_slowdown_ratio="0.0" id="node_05x05" junction="True" old_x="500.0" old_y="500.0" type="priority" weight_num="4.0" weight_sum="0.0" x="95.734401682" x_displacement_sum="-404.265598318" y="95.734401682" y_displacement_sum="-404.265598318" />
    <node avg_slowdown_ratio="0.0" id="node_05x06" junction="True" old_x="500.0" old_y="600.0" type="priority" weight_num="4.0" weight_sum="0.0" x="38.717376928" x_displacement_sum="-461.282623072" y="217.587896" y_displacement_sum="-382.412104" />