<?xml version='1.0' encoding='UTF-8'?>
<nodes xmlns:xsi="http://www.w3.org/2001/XMLSchema-instance" version="0.27" xsi:noNamespaceSchemaLocation="http://sumo.dlr.de/xsd/edges_file.xsd"><node avg_slowdown_ratio="0.71382289417" id="node_12x10" junction="True" old_x="1200.0" old_y="1000.0" type="right_before_left" weight_num="4.0" weight_sum="2.85529157668" x="1216.0282402" x_displacement_sum="16.0282402048" y="980.325783792" y_displacement_sum="-19.674216208" />
    <node avg_slowdown_ratio="0.711663066955" id="node_12x11" junction="True" old_x="1200.0" old_y="1100.0" type="right_before_left" weight_num="4.0" weight_sum="2.84665226782" x="1219.96593636" x_displacement_sum="19.9659363557" y="1116.25672217" y_displacement_sum="16.2567221717" />
    <node avg_slowdown_ratio="0.710043196545" id="node_10x08" junction="True" old_x="1000.0" old_y="800.0" type="right_before_left" weight_num="4.0" weight_sum="2.84017278618" x="1002.68160055" x_displacement_sum="2.68160055499" y="798.156595012" y_displacement_sum="-1.84340498789" />
    <node avg_slowdown_ratio="0.674046076315" id="node_11x11" junction="True" old_x="1100.0" old_y="1100.0" type="right_before_left" weight_num="4.0" weight_sum="2.69618430526" x="1086.42081869" x_displacement_sum="-13.5791813126" y="1107.74400529" y_displacement_sum="7.74400528578" />
    <node avg_slowdown_ratio="0.65172786177" id="node_10x07" junction="True" old_x="1000.0" old_y="700.0" type="right_before_left" weight_num="4.0" weight_sum="2.60691144708" x="1002.50209583" x_displacement_sum="2.5020958301" y="663.083240453" y_displacement_sum="-36.9167595475" />
    <node avg_slowdown_ratio="0.649028077753" id="node_10x09" junction="True" old_x="1000.0" old_y="900.0" type="right_before_left" weight_num="4.0" weight_sum="2.59611231101" x="979.553401582" x_displacement_sum="-20.4465984176" y="905.462894909" y_displacement_sum="5.46289490867" />
    <node avg_slowdown_ratio="0.645968322535" id="node_11x10" junction="True" old_x="1100.0" old_y="1000.0" type="right_before_left" weight_num="4.0" weight_sum="2.58387329014" x="1090.11113926" x_displacement_sum="-9.88886074061" y="992.517364498" y_displacement_sum="-7.48263550206" />
    <node avg_slowdown_ratio="0.641828653707" id="node_12x12" junction="True" old_x="1200.0" old_y="1200.0" type="right_before_left" weight_num="4.0" weight_sum="2.56731461483" x="1217.83719324" x_displacement_sum="17.8371932367" y="1240.82562208" y_displacement_sum="40.8256220777" />
    <node avg_slowdown_ratio="0.640568754497" id="node_11x12" junction="True" old_x="1100.0" old_y="1200.0" type="right_before_left" weight_num="4.0" weight_sum="2.56227501799" x="1091.81452864" x_displacement_sum="-8.18547135794" y="1236.95248634" y_displacement_sum="36.952486338" />
    <node avg_slowdown_ratio="0.638048956085" id="node_12x09" junction="True" old_x="1200.0" old_y="900.0" type="right_before_left" weight_num="4.0" weight_sum="2.55219582434" x="1227.22657636" x_displacement_sum="27.2265763639" y="866.811580692" y_displacement_sum="-33.1884193078" />
    <node avg_slowdown_ratio="0.632109431245" id="node_10x11" junction="True" old_x="1000.0" old_y="1100.0" type="right_before_left" weight_num="4.0" weight_sum="2.52843772498" x="962.511535831" x_displacement_sum="-37.4884641694" y="1111.40059914" y_displacement_sum="11.4005991399" />
    <node avg_slowdown_ratio="0.628329733622" id="node_08x07" junction="True" old_x="800.0" old_y="700.0" type="right_before_left" weight_num="4.0" weight_sum="2.51331893449" x="769.862991208" x_displacement_sum="-30.1370087925" y="660.865313318" y_displacement_sum="-39.1346866821" />
    <node avg_slowdown_ratio="0.624730021598" id="node_10x10" junction="True" old_x="1000.0" old_y="1000.0" type="right_before_left" weight_num="4.0" weight_sum="2.49892008639" x="962.245792633" x_displacement_sum="-37.7542073669" y="1004.9915121" y_displacement_sum="4.99151210376" />
    <node avg_slowdown_ratio="0.621310295175" id="node_09x07" junction="True" old_x="900.0" old_y="700.0" type="right_before_left" weight_num="4.0" weight_sum="2.4852411807" x="887.99493136" x_displacement_sum="-12.0050686403" y="665.034899501" y_displacement_sum="-34.9651004986" />
    <node avg_slowdown_ratio="0.620230381567" id="node_09x08" junction="True" old_x="900.0" old_y="800.0" type="right_before_left" weight_num="4.0" weight_sum="2.48092152627" x="886.575632752" x_displacement_sum="-13.4243672478" y="807.969338946" y_displacement_sum="7.96933894561" />
    <node avg_slowdown_ratio="0.613750899927" id="node_13x10" junction="True" old_x="1300.0" old_y="1000.0" type="right_before_left" weight_num="4.0" weight_sum="2.45500359971" x="1347.41641367" x_displacement_sum="47.4164136728" y="986.047483754" y_displacement_sum="-13.9525162465" />
    <node avg_slowdown_ratio="0.613390928728" id="node_10x12" junction="True" old_x="1000.0" old_y="1200.0" type="right_before_left" weight_num="4.0" weight_sum="2.45356371491" x="974.547130594" x_displacement_sum="-25.4528694058" y="1222.62125033" y_displacement_sum="22.6212503317" />
    <node avg_slowdown_ratio="0.613030957525" id="node_08x08" junction="True" old_x="800.0" old_y="800.0" type="right_before_left" weight_num="4.0" weight_sum="2.4521238301" x="774.283025649" x_displacement_sum="-25.7169743508" y="796.930150543" y_displacement_sum="-3.06984945684" />
    <node avg_slowdown_ratio="0.61069114471" id="node_11x08" junction="True" old_x="1100.0" old_y="800.0" type="right_before_left" weight_num="4.0" weight_sum="2.44276457884" x="1121.24692392" x_displacement_sum="21.2469239191" y="772.842808313" y_displacement_sum="-27.1571916871" />
    <node avg_slowdown_ratio="0.6094312455" id="node_11x09" junction="True" old_x="1100.0" old_y="900.0" type="right_before_left" weight_num="4.0" weight_sum="2.437724982" x="1100.56669567" x_displacement_sum="0.566695673521" y="876.981720311" y_displacement_sum="-23.0182796891" />
    <node avg_slowdown_ratio="0.60781137509" id="node_07x09" junction="True" old_x="700.0" old_y="900.0" type="right_before_left" weight_num="4.0" weight_sum="2.43124550036" x="680.050155472" x_displacement_sum="-19.9498445281" y="904.293521476" y_displacement_sum="4.29352147629" />
    <node avg_slowdown_ratio="0.60637149028" id="node_07x08" junction="True" old_x="700.0" old_y="800.0" type="right_before_left" weight_num="4.0" weight_sum="2.42548596112" x="669.771416655" x_displacement_sum="-30.2285833447" y="792.626833328" y_displacement_sum="-7.37316667182" />
    <node avg_slowdown_ratio="0.60025197984" id="node_13x11" junction="True" old_x="1300.0" old_y="1100.0" type="right_before_left" weight_num="4.0" weight_sum="2.40100791936" x="1346.03457217" x_displacement_sum="46.0345721667" y="1116.07818201" y_displacement_sum="16.0781820059" />
    <node avg_slowdown_ratio="0.59521238301" id="node_09x11" junction="True" old_x="900.0" old_y="1100.0" type="right_before_left" weight_num="4.0" weight_sum="2.38084953204" x="877.155406966" x_displacement_sum="-22.8445930335" y="1102.01771229" y_displacement_sum="2.01771228814" />
    <node avg_slowdown_ratio="0.589632829375" id="node_09x12" junction="True" old_x="900.0" old_y="1200.0" type="right_before_left" weight_num="4.0" weight_sum="2.3585313175" x="886.275617104" x_displacement_sum="-13.7243828964" y="1208.83652268" y_displacement_sum="8.83652267928" />
    <node avg_slowdown_ratio="0.589452843772" id="node_08x09" junction="True" old_x="800.0" old_y="900.0" type="right_before_left" weight_num="4.0" weight_sum="2.35781137509" x="788.386786985" x_displacement_sum="-11.6132130153" y="915.673416274" y_displacement_sum="15.673416274" />
    <node avg_slowdown_ratio="0.58747300216" id="node_12x08" junction="True" old_x="1200.0" old_y="800.0" type="right_before_left" weight_num="4.0" weight_sum="2.34989200864" x="1228.84534596" x_displacement_sum="28.8453459592" y="769.388444329" y_displacement_sum="-30.6115556712" />
    <node avg_slowdown_ratio="0.58603311735" id="node_08x13" junction="True" old_x="800.0" old_y="1300.0" type="right_before_left" weight_num="4.0" weight_sum="2.3441324694" x="802.399696023" x_displacement_sum="2.39969602287" y="1323.28018447" y_displacement_sum="23.2801844699" />
    <node avg_slowdown_ratio="0.585673146147" id="node_07x13" junction="True" old_x="700.0" old_y="1300.0" type="right_before_left" weight_num="4.0" weight_sum="2.34269258459" x="695.059833137" x_displacement_sum="-4.94016686276" y="1322.80143929" y_displacement_sum="22.8014392878" />
    <node avg_slowdown_ratio="0.585673146147" id="node_08x11" junction="True" old_x="800.0" old_y="1100.0" type="right_before_left" weight_num="4.0" weight_sum="2.34269258459" x="788.848241763" x_displacement_sum="-11.1517582374" y="1103.63911286" y_displacement_sum="3.63911286021" />
    <node avg_slowdown_ratio="0.583873290138" id="node_14x10" junction="True" old_x="1400.0" old_y="1000.0" type="right_before_left" weight_num="4.0" weight_sum="2.33549316055" x="1443.8917916" x_displacement_sum="43.8917916046" y="978.798185978" y_displacement_sum="-21.2018140215" />
    <node avg_slowdown_ratio="0.58279337653" id="node_07x11" junction="True" old_x="700.0" old_y="1100.0" type="right_before_left" weight_num="4.0" weight_sum="2.33117350612" x="692.760164303" x_displacement_sum="-7.23983569688" y="1103.49760121" y_displacement_sum="3.49760121056" />
    <node avg_slowdown_ratio="0.582253419725" id="node_09x10" junction="True" old_x="900.0" old_y="1000.0" type="right_before_left" weight_num="4.0" weight_sum="2.3290136789" x="877.946084444" x_displacement_sum="-22.053915556" y="1007.40707967" y_displacement_sum="7.40707966759" />
    <node avg_slowdown_ratio="0.581173506122" id="node_11x13" junction="True" old_x="1100.0" old_y="1300.0" type="right_before_left" weight_num="4.0" weight_sum="2.32469402449" x="1097.88780742" x_displacement_sum="-2.11219257648" y="1353.00343353" y_displacement_sum="53.0034335284" />
    <node avg_slowdown_ratio="0.580453563715" id="node_08x10" junction="True" old_x="800.0" old_y="1000.0" type="right_before_left" weight_num="4.0" weight_sum="2.32181425486" x="798.237731544" x_displacement_sum="-1.76226845569" y="1001.36390563" y_displacement_sum="1.36390562579" />
    <node avg_slowdown_ratio="0.57667386609" id="node_06x13" junction="True" old_x="600.0" old_y="1300.0" type="right_before_left" weight_num="4.0" weight_sum="2.30669546436" x="585.751469512" x_displacement_sum="-14.2485304877" y="1317.48489032" y_displacement_sum="17.4848903161" />
    <node avg_slowdown_ratio="0.576313894887" id="node_10x13" junction="True" old_x="1000.0" old_y="1300.0" type="right_before_left" weight_num="4.0" weight_sum="2.30525557955" x="986.698328322" x_displacement_sum="-13.3016716779" y="1337.69693607" y_displacement_sum="37.6969360713" />
    <node avg_slowdown_ratio="0.571634269255" id="node_07x10" junction="True" old_x="700.0" old_y="1000.0" type="right_before_left" weight_num="4.0" weight_sum="2.28653707702" x="685.540929699" x_displacement_sum="-14.4590703015" y="997.595033688" y_displacement_sum="-2.40496631243" />
    <node avg_slowdown_ratio="0.570914326852" id="node_11x07" junction="True" old_x="1100.0" old_y="700.0" type="right_before_left" weight_num="4.0" weight_sum="2.28365730741" x="1126.39245699" x_displacement_sum="26.3924569939" y="673.055882738" y_displacement_sum="-26.9441172616" />
    <node avg_slowdown_ratio="0.56119510439" id="node_15x11" junction="True" old_x="1500.0" old_y="1100.0" type="right_before_left" weight_num="4.0" weight_sum="2.24478041756" x="1519.60284571" x_displacement_sum="19.6028457131" y="1100.94276194" y_displacement_sum="0.942761937646" />
    <node avg_slowdown_ratio="0.560655147588" id="node_08x12" junction="True" old_x="800.0" old_y="1200.0" type="right_before_left" weight_num="4.0" weight_sum="2.24262059035" x="796.738047237" x_displacement_sum="-3.26195276344" y="1204.27312984" y_displacement_sum="4.27312983973" />
    <node avg_slowdown_ratio="0.55957523398" id="node_09x09" junction="True" old_x="900.0" old_y="900.0" type="right_before_left" weight_num="4.0" weight_sum="2.23830093592" x="884.934776924" x_displacement_sum="-15.0652230762" y="914.935295281" y_displacement_sum="14.9352952814" />
    <node avg_slowdown_ratio="0.559035277178" id="node_06x11" junction="True" old_x="600.0" old_y="1100.0" type="right_before_left" weight_num="4.0" weight_sum="2.23614110871" x="580.917034757" x_displacement_sum="-19.0829652429" y="1097.26990483" y_displacement_sum="-2.73009517161" />
    <node avg_slowdown_ratio="0.558135349172" id="node_13x07" junction="True" old_x="1300.0" old_y="700.0" type="right_before_left" weight_num="4.0" weight_sum="2.23254139669" x="1305.61659011" x_displacement_sum="5.61659011353" y="689.949513008" y_displacement_sum="-10.0504869917" />
    <node avg_slowdown_ratio="0.55813534917" id="node_13x09" junction="True" old_x="1300.0" old_y="900.0" type="right_before_left" weight_num="4.0" weight_sum="2.23254139668" x="1334.5777252" x_displacement_sum="34.5777252041" y="872.127104555" y_displacement_sum="-27.872895445" />
    <node avg_slowdown_ratio="0.55471562275" id="node_11x06" junction="True" old_x="1100.0" old_y="600.0" type="right_before_left" weight_num="4.0" weight_sum="2.218862491" x="1127.81306875" x_displacement_sum="27.8130687461" y="570.106304751" y_displacement_sum="-29.8936952493" />
    <node avg_slowdown_ratio="0.551835853133" id="node_06x12" junction="True" old_x="600.0" old_y="1200.0" type="right_before_left" weight_num="4.0" weight_sum="2.20734341253" x="582.166048915" x_displacement_sum="-17.8339510852" y="1200.83141701" y_displacement_sum="0.831417006238" />
    <node avg_slowdown_ratio="0.550755939528" id="node_13x12" junction="True" old_x="1300.0" old_y="1200.0" type="right_before_left" weight_num="4.0" weight_sum="2.20302375811" x="1339.8147424" x_displacement_sum="39.8147424026" y="1227.35870703" y_displacement_sum="27.3587070308" />
    <node avg_slowdown_ratio="0.547876169907" id="node_12x13" junction="True" old_x="1200.0" old_y="1300.0" type="right_before_left" weight_num="4.0" weight_sum="2.19150467963" x="1215.97905959" x_displacement_sum="15.9790595879" y="1348.09647955" y_displacement_sum="48.096479552" />
    <node avg_slowdown_ratio="0.54247660187" id="node_09x13" junction="True" old_x="900.0" old_y="1300.0" type="right_before_left" weight_num="4.0" weight_sum="2.16990640748" x="895.90327123" x_displacement_sum="-4.0967287701" y="1330.90042136" y_displacement_sum="30.9004213564" />
    <node avg_slowdown_ratio="0.541936645067" id="node_13x13" junction="True" old_x="1300.0" old_y="1300.0" type="right_before_left" weight_num="4.0" weight_sum="2.16774658027" x="1321.72998701" x_displacement_sum="21.729987005" y="1335.62622878" y_displacement_sum="35.6262287797" />
    <node avg_slowdown_ratio="0.541216702665" id="node_07x12" junction="True" old_x="700.0" old_y="1200.0" type="right_before_left" weight_num="4.0" weight_sum="2.16486681066" x="696.216154141" x_displacement_sum="-3.78384585856" y="1198.22809898" y_displacement_sum="-1.77190101747" />
    <node avg_slowdown_ratio="0.537796976243" id="node_10x05" junction="True" old_x="1000.0" old_y="500.0" type="right_before_left" weight_num="4.0" weight_sum="2.15118790497" x="985.8852309" x_displacement_sum="-14.1147691001" y="480.274817986" y_displacement_sum="-19.725182014" />
    <node avg_slowdown_ratio="0.53437724982" id="node_10x06" junction="True" old_x="1000.0" old_y="600.0" type="right_before_left" weight_num="4.0" weight_sum="2.13750899928" x="995.455038899" x_displacement_sum="-4.54496110113" y="555.851741967" y_displacement_sum="-44.1482580328" />
    <node avg_slowdown_ratio="0.533837293015" id="node_15x12" junction="True" old_x="1500.0" old_y="1200.0" type="right_before_left" weight_num="4.0" weight_sum="2.13534917206" x="1514.04146979" x_displacement_sum="14.0414697946" y="1220.73351911" y_displacement_sum="20.7335191074" />
    <node avg_slowdown_ratio="0.531137508998" id="node_06x10" junction="True" old_x="600.0" old_y="1000.0" type="right_before_left" weight_num="4.0" weight_sum="2.12455003599" x="567.031006376" x_displacement_sum="-32.9689936239" y="987.00676221" y_displacement_sum="-12.9932377897" />
    <node avg_slowdown_ratio="0.528977681788" id="node_12x04" junction="True" old_x="1200.0" old_y="400.0" type="right_before_left" weight_num="4.0" weight_sum="2.11591072715" x="1206.20871184" x_displacement_sum="6.20871183667" y="377.123719084" y_displacement_sum="-22.876280916" />
    <node avg_slowdown_ratio="0.526997840175" id="node_11x14" junction="True" old_x="1100.0" old_y="1400.0" type="right_before_left" weight_num="4.0" weight_sum="2.1079913607" x="1105.34051513" x_displacement_sum="5.34051512798" y="1428.41398378" y_displacement_sum="28.4139837817" />
    <node avg_slowdown_ratio="0.52609791217" id="node_13x08" junction="True" old_x="1300.0" old_y="800.0" type="right_before_left" weight_num="4.0" weight_sum="2.10439164868" x="1324.95756893" x_displacement_sum="24.9575689345" y="786.22999892" y_displacement_sum="-13.7700010802" />
    <node avg_slowdown_ratio="0.52051835853" id="node_06x08" junction="True" old_x="600.0" old_y="800.0" type="right_before_left" weight_num="4.0" weight_sum="2.08207343412" x="564.682708465" x_displacement_sum="-35.3172915347" y="794.550618394" y_displacement_sum="-5.44938160593" />
    <node avg_slowdown_ratio="0.519438444923" id="node_14x07" junction="True" old_x="1400.0" old_y="700.0" type="right_before_left" weight_num="4.0" weight_sum="2.07775377969" x="1422.73739638" x_displacement_sum="22.7373963835" y="697.866376316" y_displacement_sum="-2.13362368365" />
    <node avg_slowdown_ratio="0.519078473723" id="node_14x08" junction="True" old_x="1400.0" old_y="800.0" type="right_before_left" weight_num="4.0" weight_sum="2.07631389489" x="1425.64638716" x_displacement_sum="25.6463871628" y="805.935480555" y_displacement_sum="5.93548055484" />
    <node avg_slowdown_ratio="0.517818574513" id="node_13x06" junction="True" old_x="1300.0" old_y="600.0" type="right_before_left" weight_num="4.0" weight_sum="2.07127429805" x="1297.60846022" x_displacement_sum="-2.39153978246" y="578.787411674" y_displacement_sum="-21.2125883263" />
    <node avg_slowdown_ratio="0.51745860331" id="node_05x11" junction="True" old_x="500.0" old_y="1100.0" type="right_before_left" weight_num="4.0" weight_sum="2.06983441324" x="470.742740776" x_displacement_sum="-29.257259224" y="1094.45820193" y_displacement_sum="-5.54179806826" />
    <node avg_slowdown_ratio="0.516918646507" id="node_14x11" junction="True" old_x="1400.0" old_y="1100.0" type="right_before_left" weight_num="4.0" weight_sum="2.06767458603" x="1436.37375133" x_displacement_sum="36.3737513295" y="1112.12606476" y_displacement_sum="12.1260647624" />
    <node avg_slowdown_ratio="0.514938804897" id="node_14x12" junction="True" old_x="1400.0" old_y="1200.0" type="right_before_left" weight_num="4.0" weight_sum="2.05975521959" x="1427.51124459" x_displacement_sum="27.5112445907" y="1221.55926539" y_displacement_sum="21.5592653876" />
    <node avg_slowdown_ratio="0.513138948885" id="node_15x10" junction="True" old_x="1500.0" old_y="1000.0" type="right_before_left" weight_num="4.0" weight_sum="2.05255579554" x="1519.35796066" x_displacement_sum="19.3579606641" y="980.127599938" y_displacement_sum="-19.872400062" />
    <node avg_slowdown_ratio="0.508999280057" id="node_12x07" junction="True" old_x="1200.0" old_y="700.0" type="right_before_left" weight_num="4.0" weight_sum="2.03599712023" x="1225.46621141" x_displacement_sum="25.4662114143" y="678.748129962" y_displacement_sum="-21.2518700382" />
    <node avg_slowdown_ratio="0.505579553635" id="node_11x04" junction="True" old_x="1100.0" old_y="400.0" type="right_before_left" weight_num="4.0" weight_sum="2.02231821454" x="1108.56469286" x_displacement_sum="8.56469285507" y="380.854210179" y_displacement_sum="-19.145789821" />
    <node avg_slowdown_ratio="0.50485961123" id="node_12x06" junction="True" old_x="1200.0" old_y="600.0" type="right_before_left" weight_num="4.0" weight_sum="2.01943844492" x="1206.56499592" x_displacement_sum="6.5649959193" y="579.344000433" y_displacement_sum="-20.6559995671" />
    <node avg_slowdown_ratio="0.504319654428" id="node_11x05" junction="True" old_x="1100.0" old_y="500.0" type="right_before_left" weight_num="4.0" weight_sum="2.01727861771" x="1109.13322305" x_displacement_sum="9.13322304546" y="494.050942943" y_displacement_sum="-5.94905705659" />
    <node avg_slowdown_ratio="0.502699784018" id="node_05x12" junction="True" old_x="500.0" old_y="1200.0" type="right_before_left" weight_num="4.0" weight_sum="2.01079913607" x="468.758848051" x_displacement_sum="-31.2411519489" y="1202.21528009" y_displacement_sum="2.21528009258" />
    <node avg_slowdown_ratio="0.5" id="node_10x15" junction="True" old_x="1000.0" old_y="1500.0" type="right_before_left" weight_num="4.0" weight_sum="2.0" x="991.863414656" x_displacement_sum="-8.13658534424" y="1516.37119526" y_displacement_sum="16.3711952603" />
    <node avg_slowdown_ratio="0.499999999997" id="node_14x06" junction="True" old_x="1400.0" old_y="600.0" type="right_before_left" weight_num="4.0" weight_sum="1.99999999999" x="1418.39707852" x_displacement_sum="18.397078518" y="584.444898779" y_displacement_sum="-15.5551012212" />
    <node avg_slowdown_ratio="0.499640028798" id="node_06x09" junction="True" old_x="600.0" old_y="900.0" type="right_before_left" weight_num="4.0" weight_sum="1.99856011519" x="557.520958978" x_displacement_sum="-42.4790410223" y="899.310275488" y_displacement_sum="-0.689724512239" />
    <node avg_slowdown_ratio="0.499640028795" id="node_14x13" junction="True" old_x="1400.0" old_y="1300.0" type="right_before_left" weight_num="4.0" weight_sum="1.99856011518" x="1416.82572265" x_displacement_sum="16.8257226506" y="1326.38370651" y_displacement_sum="26.383706508" />
    <node avg_slowdown_ratio="0.498740100792" id="node_08x06" junction="True" old_x="800.0" old_y="600.0" type="right_before_left" weight_num="4.0" weight_sum="1.99496040317" x="780.301220769" x_displacement_sum="-19.6987792309" y="566.064811821" y_displacement_sum="-33.9351881791" />
    <node avg_slowdown_ratio="0.497480201583" id="node_07x14" junction="True" old_x="700.0" old_y="1400.0" type="right_before_left" weight_num="4.0" weight_sum="1.98992080633" x="693.351685975" x_displacement_sum="-6.64831402517" y="1426.54111004" y_displacement_sum="26.5411100429" />
    <node avg_slowdown_ratio="0.497300215983" id="node_06x07" junction="True" old_x="600.0" old_y="700.0" type="right_before_left" weight_num="4.0" weight_sum="1.98920086393" x="576.403648683" x_displacement_sum="-23.5963513168" y="676.405298913" y_displacement_sum="-23.5947010874" />
    <node avg_slowdown_ratio="0.497120230382" id="node_08x15" junction="True" old_x="800.0" old_y="1500.0" type="right_before_left" weight_num="4.0" weight_sum="1.98848092153" x="804.967415364" x_displacement_sum="4.96741536385" y="1519.26896078" y_displacement_sum="19.2689607752" />
    <node avg_slowdown_ratio="0.49496040317" id="node_16x11" junction="True" old_x="1600.0" old_y="1100.0" type="right_before_left" weight_num="4.0" weight_sum="1.97984161268" x="1633.76307748" x_displacement_sum="33.7630774831" y="1094.77564496" y_displacement_sum="-5.22435504441" />
    <node avg_slowdown_ratio="0.493160547158" id="node_10x04" junction="True" old_x="1000.0" old_y="400.0" type="right_before_left" weight_num="4.0" weight_sum="1.97264218863" x="991.790927707" x_displacement_sum="-8.20907229306" y="376.415237062" y_displacement_sum="-23.584762938" />
    <node avg_slowdown_ratio="0.49226061915" id="node_05x13" junction="True" old_x="500.0" old_y="1300.0" type="right_before_left" weight_num="4.0" weight_sum="1.9690424766" x="475.468719356" x_displacement_sum="-24.5312806437" y="1315.3403449" y_displacement_sum="15.3403448989" />
    <node avg_slowdown_ratio="0.487580993523" id="node_13x15" junction="True" old_x="1300.0" old_y="1500.0" type="right_before_left" weight_num="4.0" weight_sum="1.95032397409" x="1307.8954278" x_displacement_sum="7.89542779906" y="1515.45827719" y_displacement_sum="15.4582771904" />
    <node avg_slowdown_ratio="0.486501079915" id="node_07x15" junction="True" old_x="700.0" old_y="1500.0" type="right_before_left" weight_num="4.0" weight_sum="1.94600431966" x="694.121980304" x_displacement_sum="-5.87801969623" y="1513.90712994" y_displacement_sum="13.9071299373" />
    <node avg_slowdown_ratio="0.486141108712" id="node_09x06" junction="True" old_x="900.0" old_y="600.0" type="right_before_left" weight_num="4.0" weight_sum="1.94456443485" x="884.099137877" x_displacement_sum="-15.9008621227" y="554.257076693" y_displacement_sum="-45.7429233069" />
    <node avg_slowdown_ratio="0.486141108712" id="node_11x15" junction="True" old_x="1100.0" old_y="1500.0" type="right_before_left" weight_num="4.0" weight_sum="1.94456443485" x="1105.96462492" x_displacement_sum="5.96462491632" y="1516.76921771" y_displacement_sum="16.7692177148" />
    <node avg_slowdown_ratio="0.48614110871" id="node_07x07" junction="True" old_x="700.0" old_y="700.0" type="right_before_left" weight_num="4.0" weight_sum="1.94456443484" x="673.242788622" x_displacement_sum="-26.7572113779" y="667.784772227" y_displacement_sum="-32.2152277733" />
    <node avg_slowdown_ratio="0.4843412527" id="node_09x15" junction="True" old_x="900.0" old_y="1500.0" type="right_before_left" weight_num="4.0" weight_sum="1.9373650108" x="896.071507522" x_displacement_sum="-3.92849247756" y="1515.68941243" y_displacement_sum="15.6894124313" />
    <node avg_slowdown_ratio="0.48164146868" id="node_13x05" junction="True" old_x="1300.0" old_y="500.0" type="right_before_left" weight_num="4.0" weight_sum="1.92656587472" x="1309.64556652" x_displacement_sum="9.64556652128" y="489.875615591" y_displacement_sum="-10.1243844092" />
    <node avg_slowdown_ratio="0.480381569475" id="node_10x14" junction="True" old_x="1000.0" old_y="1400.0" type="right_before_left" weight_num="4.0" weight_sum="1.9215262779" x="990.784822221" x_displacement_sum="-9.21517777912" y="1423.06725574" y_displacement_sum="23.0672557402" />
    <node avg_slowdown_ratio="0.480201583873" id="node_04x07" junction="True" old_x="400.0" old_y="700.0" type="right_before_left" weight_num="4.0" weight_sum="1.92080633549" x="387.701665194" x_displacement_sum="-12.2983348063" y="692.487861465" y_displacement_sum="-7.51213853534" />
    <node avg_slowdown_ratio="0.479301655868" id="node_09x05" junction="True" old_x="900.0" old_y="500.0" type="right_before_left" weight_num="4.0" weight_sum="1.91720662347" x="882.288350296" x_displacement_sum="-17.7116497043" y="482.392844067" y_displacement_sum="-17.6071559333" />
    <node avg_slowdown_ratio="0.47822174226" id="node_12x15" junction="True" old_x="1200.0" old_y="1500.0" type="right_before_left" weight_num="4.0" weight_sum="1.91288696904" x="1207.11609327" x_displacement_sum="7.11609326764" y="1520.77568916" y_displacement_sum="20.7756891597" />
    <node avg_slowdown_ratio="0.47660187185" id="node_05x07" junction="True" old_x="500.0" old_y="700.0" type="right_before_left" weight_num="4.0" weight_sum="1.9064074874" x="488.802850358" x_displacement_sum="-11.1971496415" y="682.301779628" y_displacement_sum="-17.6982203715" />
    <node avg_slowdown_ratio="0.475881929445" id="node_08x14" junction="True" old_x="800.0" old_y="1400.0" type="right_before_left" weight_num="4.0" weight_sum="1.90352771778" x="806.9419848" x_displacement_sum="6.94198480032" y="1422.32164596" y_displacement_sum="22.3216459647" />
    <node avg_slowdown_ratio="0.47516198704" id="node_16x12" junction="True" old_x="1600.0" old_y="1200.0" type="right_before_left" weight_num="4.0" weight_sum="1.90064794816" x="1626.27717449" x_displacement_sum="26.2771744907" y="1220.64092345" y_displacement_sum="20.640923446" />
    <node avg_slowdown_ratio="0.473902087835" id="node_12x14" junction="True" old_x="1200.0" old_y="1400.0" type="right_before_left" weight_num="4.0" weight_sum="1.89560835134" x="1208.25932729" x_displacement_sum="8.25932728668" y="1427.01812391" y_displacement_sum="27.0181239148" />
    <node avg_slowdown_ratio="0.473902087832" id="node_13x14" junction="True" old_x="1300.0" old_y="1400.0" type="right_before_left" weight_num="4.0" weight_sum="1.89560835133" x="1312.47543677" x_displacement_sum="12.4754367683" y="1418.11042291" y_displacement_sum="18.1104229051" />
    <node avg_slowdown_ratio="0.472642188628" id="node_13x04" junction="True" old_x="1300.0" old_y="400.0" type="right_before_left" weight_num="4.0" weight_sum="1.89056875451" x="1314.71071014" x_displacement_sum="14.7107101447" y="385.560852791" y_displacement_sum="-14.4391472095" />
    <node avg_slowdown_ratio="0.47210223182" id="node_05x14" junction="True" old_x="500.0" old_y="1400.0" type="right_before_left" weight_num="4.0" weight_sum="1.88840892728" x="480.899891556" x_displacement_sum="-19.1001084444" y="1418.79784426" y_displacement_sum="18.7978442578" />
    <node avg_slowdown_ratio="0.47210223182" id="node_06x15" junction="True" old_x="600.0" old_y="1500.0" type="right_before_left" weight_num="4.0" weight_sum="1.88840892728" x="591.721687984" x_displacement_sum="-8.27831201643" y="1515.24962371" y_displacement_sum="15.2496237104" />
    <node avg_slowdown_ratio="0.468142548597" id="node_04x11" junction="True" old_x="400.0" old_y="1100.0" type="right_before_left" weight_num="4.0" weight_sum="1.87257019439" x="378.23313174" x_displacement_sum="-21.7668682601" y="1097.65258154" y_displacement_sum="-2.34741846338" />
    <node avg_slowdown_ratio="0.467602591793" id="node_15x07" junction="True" old_x="1500.0" old_y="700.0" type="right_before_left" weight_num="4.0" weight_sum="1.87041036717" x="1522.05247265" x_displacement_sum="22.0524726467" y="695.416851929" y_displacement_sum="-4.58314807121" />