<?xml version='1.0' encoding='UTF-8'?>
<nodes xmlns:xsi="http://www.w3.org/2001/XMLSchema-instance" version="0.27" xsi:noNamespaceSchemaLocation="http://sumo.dlr.de/xsd/nodes_file.xsd">
    <location convBoundary="2208.92,522.44,21219.92,15402.46" netOffset="-224973.31,-2700122.99" origBoundary="54.286966,24.391306,54.609531,24.591038" projParameter="+proj=utm +zone=40 +ellps=WGS84 +datum=WGS84 +units=m +no_defs" />

    <node id="node_0" type="priority" x="4350.6" y="-1830.3" />
    <node id="node_1" type="priority" x="2973.5" y="2739.0" />
    <node id="node_2" type="priority" x="2308.9" y="3644.2" />
    <node id="node_3" tl="GS_1003388266" type="traffic_light" x="-725.93" y="-471.43" />
    <node id="node_4" type="priority" x="26.498" y="-342.12" />
    <node id="node_5" type="priority" x="-774.63" y="-493.51" />
    <node id="node_6" tl="GS_1003388319" type="traffic_light" x="102.61" y="-335.0" />
    <node id="node_7" type="priority" x="-280.59" y="1559.8" />
    <node id="node_8" type="priority" x="-635.42" y="2962.8" />
    <node id="node_9" type="priority" x="2630.8" y="3147.9" />
    <node id="node_10" type="priority" x="-5053.0" y="663.46" />
    <node id="node_11" type="priority" x="-5050.6" y="653.88" />
    <node id="node_12" type="priority" x="-5868.6" y="-378.0" />
    <node id="node_13" type="priority" x="-5287.6" y="-171.61" />
    <node id="node_14" type="unregulated" x="-5699.1" y="-43.553" />
    <node id="node_15" type="unregulated" x="-5623.1" y="-100.23" />
    <node id="node_16" type="priority" x="-5769.7" y="-262.16" />
    <node id="node_17" type="priority" x="3755.4" y="-1017.4" />
    <node id="node_18" type="priority" x="3776.3" y="-1036.9" />
    <node id="node_19" type="priority" x="671.6" y="3405.2" />
    <node id="node_20" type="priority" x="716.47" y="3427.1" />
    <node id="node_21" type="priority" x="623.68" y="3391.7" />
    <node id="node_22" type="priority" x="-816.96" y="1992.0" />
    <node id="node_23" type="priority" x="686.58" y="3663.4" />
    <node id="node_24" type="priority" x="-749.88" y="1777.1" />
    <node id="node_25" type="priority" x="-1786.3" y="2073.5" />
    <node id="node_26" type="priority" x="-2894.1" y="1317.8" />
    <node id="node_27" type="priority" x="-4811.4" y="535.96" />
    <node id="node_28" type="priority" x="-3283.6" y="845.67" />
    <node id="node_29" type="priority" x="-2325.0" y="2226.1" />
    <node id="node_30" type="priority" x="-1875.5" y="2167.3" />
    <node id="node_31" type="priority" x="-2838.0" y="1381.3" />
    <node id="node_32" type="priority" x="-2338.6" y="2332.2" />
    <node id="node_33" type="priority" x="-2784.4" y="1488.1" />
    <node id="node_34" type="priority" x="-2298.3" y="2331.5" />
    <node id="node_35" type="priority" x="-2839.9" y="1381.5" />
    <node id="node_36" type="priority" x="-604.05" y="1831.9" />
    <node id="node_37" type="priority" x="-487.75" y="1847.7" />
    <node id="node_38" type="priority" x="-592.37" y="1717.3" />
    <node id="node_39" type="priority" x="-1199.9" y="1804.7" />
    <node id="node_40" type="priority" x="-321.2" y="1562.4" />
    <node id="node_41" type="priority" x="-221.8" y="1601.9" />
    <node id="node_42" type="priority" x="-404.13" y="1633.4" />
    <node id="node_43" type="priority" x="-258.15" y="1835.9" />
    <node id="node_44" type="priority" x="-658.55" y="1744.8" />
    <node id="node_45" type="priority" x="-442.94" y="1739.2" />
    <node id="node_46" type="priority" x="-1399.4" y="2668.9" />
    <node id="node_47" type="priority" x="-1535.1" y="2694.9" />
    <node id="node_48" type="priority" x="-1423.1" y="2662.3" />
    <node id="node_49" type="priority" x="-1347.4" y="2650.3" />
    <node id="node_50" type="priority" x="-1542.7" y="2671.8" />
    <node id="node_51" type="priority" x="-1554.3" y="2678.9" />
    <node id="node_52" type="priority" x="-1451.1" y="2679.9" />
    <node id="node_53" type="priority" x="-1735.7" y="2649.3" />
    <node id="node_54" type="priority" x="-1500.1" y="2156.9" />
    <node id="node_55" type="priority" x="-1576.3" y="2177.0" />
    <node id="node_56" type="priority" x="1517.6" y="736.28" />
    <node id="node_57" type="priority" x="-3006.8" y="-1069.3" />
    <node id="node_58" type="priority" x="-2829.2" y="-1200.4" />
    <node id="node_59" type="priority" x="-2979.9" y="-1150.7" />
    <node id="node_60" type="priority" x="-2942.1" y="-1329.6" />
    <node id="node_61" type="priority" x="-2997.4" y="-1202.1" />
    <node id="node_62" type="priority" x="-2977.0" y="-1188.1" />
    <node id="node_63" type="priority" x="-2993.2" y="-1261.4" />
    <node id="node_64" type="priority" x="-2982.4" y="-1089.7" />
    <node id="node_65" type="priority" x="-3054.5" y="-1268.4" />
    <node id="node_66" type="priority" x="-2895.7" y="-1263.5" />
    <node id="node_67" type="priority" x="-3038.9" y="-1208.2" />
    <node id="node_68" type="priority" x="-2790.4" y="-1482.5" />
    <node id="node_69" type="priority" x="-3307.2" y="-1859.7" />
    <node id="node_70" type="priority" x="-3369.9" y="-1993.2" />
    <node id="node_71" type="priority" x="-3499.7" y="-2074.7" />
    <node id="node_72" type="priority" x="-3232.2" y="-1702.1" />
    <node id="node_73" type="priority" x="-3762.3" y="-2333.7" />
    <node id="node_74" type="priority" x="-3367.3" y="-1623.0" />
    <node id="node_75" type="priority" x="-3515.5" y="-1735.8" />
    <node id="node_76" type="unregulated" x="-2902.9" y="-2162.9" />
    <node id="node_77" type="priority" x="-3570.2" y="-2061.2" />
    <node id="node_78" type="priority" x="-3506.7" y="-1937.6" />
    <node id="node_79" type="priority" x="-3791.0" y="-2202.4" />
    <node id="node_80" type="unregulated" x="-2816.9" y="-1991.3" />
    <node id="node_81" type="priority" x="-3561.9" y="-2015.8" />
    <node id="node_82" type="priority" x="-3761.1" y="-2332.8" />
    <node id="node_83" type="priority" x="-3708.5" y="-2190.1" />
    <node id="node_84" type="priority" x="-3624.0" y="-2071.9" />
    <node id="node_85" type="priority" x="-4073.8" y="-1710.8" />
    <node id="node_86" type="priority" x="-4025.8" y="-1636.1" />
    <node id="node_87" type="priority" x="-4105.5" y="-1689.7" />
    <node id="node_88" type="priority" x="-3519.2" y="-2220.2" />
    <node id="node_89" type="priority" x="-3374.6" y="-1978.8" />
    <node id="node_90" type="priority" x="-3425.0" y="-2066.7" />
    <node id="node_91" type="priority" x="-3368.5" y="-1975.4" />
    <node id="node_92" type="priority" x="-3596.4" y="-2294.0" />
    <node id="node_93" type="priority" x="-3517.1" y="-1718.6" />
    <node id="node_94" type="priority" x="-2308.1" y="-2653.8" />
    <node id="node_95" type="priority" x="-2661.7" y="-2986.9" />
    <node id="node_96" type="priority" x="-2568.1" y="-3070.3" />
    <node id="node_97" type="priority" x="-2390.9" y="-1909.5" />
    <node id="node_98" type="priority" x="-1912.7" y="-2142.0" />
    <node id="node_99" type="priority" x="-2254.2" y="-2645.8" />
    <node id="node_100" type="priority" x="-2486.5" y="-2954.7" />
    <node id="node_101" type="priority" x="-2631.3" y="-1755.0" />
    <node id="node_102" type="priority" x="-1990.0" y="-2205.9" />
    <node id="node_103" type="priority" x="-2150.7" y="-2195.8" />
    <node id="node_104" type="priority" x="-2185.1" y="-2160.0" />
    <node id="node_105" type="priority" x="-2725.9" y="-2754.9" />
    <node id="node_106" type="priority" x="-2668.1" y="-2951.3" />
    <node id="node_107" type="priority" x="-2133.2" y="-2204.9" />
    <node id="node_108" type="priority" x="-2055.9" y="-2190.2" />
    <node id="node_109" type="priority" x="-2463.4" y="-1989.1" />
    <node id="node_110" type="priority" x="-2207.1" y="-2337.1" />
    <node id="node_111" type="priority" x="-1767.1" y="-2011.6" />
    <node id="node_112" type="priority" x="-2552.6" y="-3086.2" />
    <node id="node_113" type="priority" x="-2460.4" y="-1827.4" />
    <node id="node_114" type="priority" x="-2442.3" y="-2897.6" />
    <node id="node_115" type="priority" x="-2681.3" y="-3002.4" />
    <node id="node_116" type="priority" x="-2660.5" y="-3033.8" />
    <node id="node_117" type="priority" x="-1804.6" y="-2053.6" />
    <node id="node_118" type="priority" x="-2543.6" y="-3100.7" />
    <node id="node_119" type="priority" x="-2433.1" y="-1721.5" />
    <node id="node_120" type="priority" x="-2414.1" y="-1842.5" />
    <node id="node_121" type="priority" x="-2550.4" y="-3145.1" />
    <node id="node_122" type="priority" x="-2299.0" y="-2713.0" />
    <node id="node_123" type="priority" x="-2423.5" y="-2927.0" />
    <node id="node_124" type="priority" x="-2267.6" y="-2440.2" />
    <node id="node_125" type="priority" x="-2380.5" y="-1871.0" />
    <node id="node_126" type="priority" x="-2334.5" y="-1679.3" />
    <node id="node_127" type="priority" x="-2415.4" y="-2957.6" />
    <node id="node_128" type="priority" x="-1778.7" y="-936.2" />
    <node id="node_129" type="priority" x="-1821.1" y="-1077.1" />
    <node id="node_130" type="priority" x="-1821.3" y="-1198.2" />
    <node id="node_131" type="priority" x="-1796.9" y="-1019.4" />
    <node id="node_132" type="priority" x="-2503.5" y="-857.11" />
    <node id="node_133" tl="GS_1052165761" type="traffic_light" x="-560.96" y="-298.62" />
    <node id="node_134" type="priority" x="-3292.0" y="-554.93" />
    <node id="node_135" type="priority" x="-1412.0" y="-1231.1" />
    <node id="node_136" type="priority" x="-1199.1" y="-1627.0" />
    <node id="node_137" type="priority" x="-1203.7" y="-1561.8" />
    <node id="node_138" type="priority" x="-1544.9" y="-61.864" />
    <node id="node_139" type="priority" x="-3183.2" y="-251.88" />
    <node id="node_140" type="priority" x="-2220.6" y="-1044.9" />
    <node id="node_141" type="priority" x="-3080.5" y="-385.06" />
    <node id="node_142" type="priority" x="-3196.3" y="271.65" />
    <node id="node_143" type="priority" x="-2013.2" y="-506.22" />
    <node id="node_144" type="priority" x="-1378.2" y="-1431.1" />
    <node id="node_145" type="priority" x="-1995.4" y="-357.21" />
    <node id="node_146" type="priority" x="-3072.9" y="-652.9" />
    <node id="node_147" type="priority" x="-2472.0" y="-728.64" />
    <node id="node_148" type="priority" x="-768.16" y="-620.17" />
    <node id="node_149" type="priority" x="-669.18" y="-1894.6" />
    <node id="node_150" type="priority" x="-2565.8" y="-869.51" />
    <node id="node_151" type="priority" x="-1329.3" y="-1686.0" />
    <node id="node_152" type="priority" x="-647.94" y="-1806.8" />
    <node id="node_153" type="priority" x="-2082.7" y="-383.92" />
    <node id="node_154" type="priority" x="-1457.2" y="-1324.3" />
    <node id="node_155" type="priority" x="-1193.7" y="-1465.1" />
    <node id="node_156" type="priority" x="-1244.4" y="-1332.5" />
    <node id="node_157" type="priority" x="-1793.7" y="-627.11" />
    <node id="node_158" type="priority" x="-1323.7" y="-1414.5" />
    <node id="node_159" type="priority" x="-2330.2" y="-904.31" />
    <node id="node_160" type="priority" x="-1402.3" y="-1196.1" />
    <node id="node_161" type="priority" x="-622.82" y="-295.51" />
    <node id="node_162" type="priority" x="-3317.5" y="-582.39" />
    <node id="node_163" type="priority" x="-1960.9" y="-466.95" />
    <node id="node_164" type="priority" x="-3068.4" y="-571.08" />
    <node id="node_165" type="priority" x="-3210.0" y="-333.1" />
    <node id="node_166" type="priority" x="-3267.2" y="208.24" />
    <node id="node_167" type="priority" x="-580.54" y="-409.86" />
    <node id="node_168" type="priority" x="-3189.9" y="-432.09" />
    <node id="node_169" type="priority" x="-1262.9" y="-1475.5" />
    <node id="node_170" type="priority" x="-3262.5" y="306.19" />
    <node id="node_171" tl="GS_1052166069" type="traffic_light" x="-642.64" y="-282.08" />
    <node id="node_172" type="priority" x="-1512.9" y="-1375.0" />
    <node id="node_173" type="priority" x="-3095.4" y="-399.92" />
    <node id="node_174" type="priority" x="-1450.7" y="-1231.2" />
    <node id="node_175" type="priority" x="-2018.8" y="-436.31" />
    <node id="node_176" type="priority" x="-2520.5" y="-868.72" />
    <node id="node_177" type="priority" x="-3141.3" y="-230.1" />
    <node id="node_178" type="priority" x="-1556.5" y="-110.78" />
    <node id="node_179" type="priority" x="-1454.2" y="-1321.2" />
    <node id="node_180" type="priority" x="-2449.3" y="-750.2" />
    <node id="node_181" type="priority" x="-1333.3" y="-1558.7" />
    <node id="node_182" type="priority" x="-734.08" y="-292.78" />
    <node id="node_183" type="priority" x="-1334.9" y="-1558.4" />
    <node id="node_184" type="priority" x="-2467.8" y="-865.18" />
    <node id="node_185" type="priority" x="-1488.1" y="-1294.9" />
    <node id="node_186" tl="GS_1052166282" type="traffic_light" x="-739.19" y="-361.89" />
    <node id="node_187" type="priority" x="-1355.4" y="1985.2" />
    <node id="node_188" type="priority" x="-1806.7" y="2120.7" />
    <node id="node_189" type="priority" x="-1624.2" y="2693.7" />
    <node id="node_190" type="priority" x="-1207.4" y="2089.7" />
    <node id="node_191" type="priority" x="-1313.2" y="2232.2" />
    <node id="node_192" type="priority" x="-1415.3" y="2373.4" />
    <node id="node_193" type="priority" x="-1249.2" y="2204.2" />
    <node id="node_194" type="priority" x="-1636.0" y="2367.1" />
    <node id="node_195" type="priority" x="-1440.3" y="2389.9" />
    <node id="node_196" type="priority" x="-1031.9" y="2031.7" />
    <node id="node_197" type="priority" x="-1249.3" y="2538.0" />
    <node id="node_198" type="priority" x="-1574.1" y="2594.4" />
    <node id="node_199" type="priority" x="-1368.4" y="2357.6" />
    <node id="node_200" type="priority" x="-1593.8" y="1964.9" />
    <node id="node_201" type="priority" x="-1321.7" y="2580.0" />
    <node id="node_202" type="priority" x="-1122.3" y="1899.7" />
    <node id="node_203" type="priority" x="-1258.8" y="2244.1" />
    <node id="node_204" type="priority" x="-1235.3" y="2054.1" />
    <node id="node_205" type="priority" x="-1240.9" y="2221.1" />
    <node id="node_206" type="priority" x="-1363.0" y="2647.1" />
    <node id="node_207" type="priority" x="-1406.4" y="2250.0" />
    <node id="node_208" type="priority" x="-1418.3" y="2174.0" />
    <node id="node_209" type="priority" x="-1303.6" y="2260.2" />
    <node id="node_210" type="priority" x="-1461.7" y="2333.5" />
    <node id="node_211" type="priority" x="-1287.2" y="2638.0" />
    <node id="node_212" type="priority" x="-1316.0" y="2391.9" />
    <node id="node_213" type="priority" x="-1328.5" y="2313.7" />
    <node id="node_214" type="priority" x="-1566.6" y="2541.5" />
    <node id="node_215" type="priority" x="-1370.7" y="2309.3" />
    <node id="node_216" type="priority" x="-1109.6" y="1905.3" />
    <node id="node_217" type="priority" x="-1269.2" y="2150.2" />
    <node id="node_218" type="priority" x="-1202.8" y="2118.5" />
    <node id="node_219" type="priority" x="-1303.0" y="2303.2" />
    <node id="node_220" type="priority" x="-1256.9" y="2130.2" />
    <node id="node_221" type="priority" x="-1163.6" y="2046.1" />
    <node id="node_222" type="priority" x="-1349.0" y="2061.8" />
    <node id="node_223" type="priority" x="-1751.7" y="2220.0" />
    <node id="node_224" type="priority" x="-1512.8" y="2426.0" />
    <node id="node_225" type="priority" x="-1486.1" y="2090.5" />
    <node id="node_226" type="priority" x="-1136.2" y="1998.1" />
    <node id="node_227" type="priority" x="-1366.5" y="1979.9" />
    <node id="node_228" type="priority" x="-1103.4" y="2051.9" />
    <node id="node_229" tl="GS_1061695272" type="traffic_light" x="-1033.8" y="2110.4" />
    <node id="node_230" type="priority" x="-1395.3" y="2570.6" />
    <node id="node_231" tl="GS_1061695290" type="traffic_light" x="-1114.2" y="2088.4" />
    <node id="node_232" type="priority" x="-1170.6" y="1967.8" />
    <node id="node_233" type="priority" x="-1020.2" y="-673.5" />
    <node id="node_234" type="priority" x="-215.71" y="-607.44" />
    <node id="node_235" type="priority" x="-256.85" y="-1392.0" />
    <node id="node_236" type="priority" x="-252.93" y="-1824.3" />
    <node id="node_237" type="priority" x="-226.03" y="-654.15" />
    <node id="node_238" type="priority" x="-237.57" y="-1194.8" />
    <node id="node_239" type="priority" x="-949.79" y="-1152.8" />
    <node id="node_240" type="priority" x="-218.64" y="-1026.3" />
    <node id="node_241" type="priority" x="-1060.4" y="-665.88" />
    <node id="node_242" type="priority" x="-1156.2" y="-745.64" />
    <node id="node_243" type="priority" x="-3441.0" y="406.12" />
    <node id="node_244" type="priority" x="-2472.5" y="110.97" />
    <node id="node_245" type="priority" x="-4045.4" y="174.31" />
    <node id="node_246" type="priority" x="-2341.3" y="5.1828" />
    <node id="node_247" type="priority" x="-3418.3" y="659.63" />
    <node id="node_248" type="priority" x="-3422.2" y="361.86" />
    <node id="node_249" type="priority" x="-2864.8" y="864.31" />
    <node id="node_250" type="priority" x="-3765.5" y="391.49" />
    <node id="node_251" type="priority" x="-3515.2" y="792.65" />
    <node id="node_252" type="priority" x="-4046.5" y="174.32" />
    <node id="node_253" type="priority" x="-2818.4" y="629.21" />
    <node id="node_254" type="priority" x="-3120.2" y="176.55" />
    <node id="node_255" type="priority" x="-2494.2" y="230.4" />
    <node id="node_256" type="priority" x="-3490.6" y="532.5" />
    <node id="node_257" type="priority" x="-2879.2" y="722.07" />
    <node id="node_258" type="priority" x="-3688.9" y="445.48" />
    <node id="node_259" type="priority" x="-3425.9" y="708.68" />
    <node id="node_260" type="priority" x="-2631.2" y="772.86" />
    <node id="node_261" type="priority" x="-3096.3" y="54.249" />
    <node id="node_262" type="priority" x="-3383.3" y="455.68" />
    <node id="node_263" type="priority" x="-3970.4" y="246.56" />
    <node id="node_264" type="priority" x="-2501.1" y="133.83" />
    <node id="node_265" type="priority" x="-2662.2" y="788.85" />
    <node id="node_266" type="priority" x="-2769.9" y="791.71" />
    <node id="node_267" type="priority" x="-3305.3" y="550.58" />
    <node id="node_268" type="priority" x="-3833.3" y="491.52" />
    <node id="node_269" type="priority" x="-2805.0" y="576.19" />
    <node id="node_270" type="priority" x="-3441.9" y="406.04" />
    <node id="node_271" type="priority" x="-3106.4" y="555.57" />
    <node id="node_272" type="priority" x="-3569.9" y="394.26" />
    <node id="node_273" type="priority" x="-2264.5" y="-46.845" />
    <node id="node_274" type="priority" x="-3855.8" y="345.97" />
    <node id="node_275" type="priority" x="-2658.6" y="611.07" />
    <node id="node_276" type="priority" x="-3468.4" y="746.31" />
    <node id="node_277" type="priority" x="-3761.8" y="523.34" />
    <node id="node_278" type="priority" x="-2693.9" y="625.6" />
    <node id="node_279" type="priority" x="-1393.5" y="2653.5" />
    <node id="node_280" type="priority" x="-1195.9" y="2354.0" />
    <node id="node_281" type="priority" x="-1174.7" y="2492.7" />
    <node id="node_282" type="priority" x="-1195.5" y="2358.3" />
    <node id="node_283" type="priority" x="-1227.6" y="2624.2" />
    <node id="node_284" type="priority" x="-1207.9" y="2547.8" />
    <node id="node_285" type="priority" x="-1157.1" y="2577.3" />
    <node id="node_286" type="priority" x="-1098.1" y="2507.5" />
    <node id="node_287" type="priority" x="-1120.4" y="2407.1" />
    <node id="node_288" type="priority" x="-1041.8" y="2452.5" />
    <node id="node_289" type="priority" x="-1314.6" y="2360.6" />
    <node id="node_290" type="priority" x="-1066.8" y="2500.1" />
    <node id="node_291" type="priority" x="-998.21" y="2405.6" />
    <node id="node_292" type="priority" x="-830.87" y="2129.2" />
    <node id="node_293" tl="GS_1066742878" type="traffic_light" x="-1001.3" y="2095.2" />
    <node id="node_294" type="priority" x="-1105.5" y="2283.0" />
    <node id="node_295" tl="GS_1066742913" type="traffic_light" x="-1122.6" y="2167.8" />
    <node id="node_296" type="priority" x="-3014.6" y="1627.5" />
    <node id="node_297" type="priority" x="-3041.8" y="1738.7" />
    <node id="node_298" type="priority" x="-2662.6" y="1781.1" />
    <node id="node_299" type="priority" x="-3130.0" y="1715.4" />
    <node id="node_300" type="priority" x="-2893.0" y="1506.7" />
    <node id="node_301" type="priority" x="-2717.5" y="1755.3" />
    <node id="node_302" type="priority" x="-2943.7" y="1568.3" />
    <node id="node_303" type="priority" x="-3073.6" y="1667.4" />
    <node id="node_304" type="priority" x="-2264.5" y="1782.7" />
    <node id="node_305" type="priority" x="-2440.0" y="1733.5" />
    <node id="node_306" type="priority" x="-2678.3" y="1614.5" />
    <node id="node_307" type="priority" x="500.6" y="3447.5" />
    <node id="node_308" type="priority" x="-395.25" y="3071.9" />
    <node id="node_309" type="priority" x="-99.714" y="3462.9" />
    <node id="node_310" type="priority" x="25.116" y="3092.8" />
    <node id="node_311" type="priority" x="-120.4" y="3126.6" />
    <node id="node_312" type="priority" x="-327.37" y="2963.4" />
    <node id="node_313" type="priority" x="-256.97" y="2901.7" />
    <node id="node_314" type="priority" x="-58.587" y="3152.6" />
    <node id="node_315" type="priority" x="-331.37" y="2998.6" />
    <node id="node_316" type="priority" x="-82.753" y="3523.7" />
    <node id="node_317" type="priority" x="319.87" y="3518.6" />
    <node id="node_318" type="priority" x="-227.23" y="3147.5" />
    <node id="node_319" type="priority" x="482.76" y="3505.2" />
    <node id="node_320" tl="GS_1067889614" type="traffic_light" x="482.05" y="3391.2" />
    <node id="node_321" type="priority" x="573.08" y="3428.9" />
    <node id="node_322" type="priority" x="-360.93" y="3052.2" />
    <node id="node_323" type="priority" x="76.877" y="3798.3" />
    <node id="node_324" type="priority" x="-148.55" y="3233.9" />
    <node id="node_325" type="priority" x="363.59" y="3414.0" />
    <node id="node_326" type="priority" x="134.48" y="3225.3" />
    <node id="node_327" type="priority" x="90.557" y="3349.0" />
    <node id="node_328" type="priority" x="-208.77" y="3012.7" />
    <node id="node_329" type="priority" x="384.49" y="3500.8" />
    <node id="node_330" type="priority" x="-15.831" y="3253.4" />
    <node id="node_331" type="priority" x="-125.54" y="3181.4" />
    <node id="node_332" type="priority" x="-73.324" y="3240.8" />
    <node id="node_333" type="priority" x="-254.41" y="3214.7" />
    <node id="node_334" type="priority" x="-300.91" y="2898.2" />
    <node id="node_335" type="priority" x="-174.2" y="3177.1" />
    <node id="node_336" type="priority" x="-132.96" y="3153.7" />
    <node id="node_337" type="priority" x="-62.171" y="3338.5" />
    <node id="node_338" type="priority" x="194.96" y="3449.2" />
    <node id="node_339" type="priority" x="470.63" y="3528.6" />
    <node id="node_340" type="priority" x="498.92" y="3664.4" />
    <node id="node_341" type="priority" x="-369.93" y="3048.9" />
    <node id="node_342" type="priority" x="-178.99" y="3125.0" />
    <node id="node_343" type="priority" x="388.69" y="3535.0" />
    <node id="node_344" type="priority" x="252.44" y="3285.0" />
    <node id="node_345" type="priority" x="379.59" y="3353.7" />
    <node id="node_346" type="priority" x="505.48" y="3458.1" />
    <node id="node_347" type="priority" x="-925.84" y="-3697.6" />
    <node id="node_348" type="priority" x="-471.97" y="-3298.7" />
    <node id="node_349" type="priority" x="-1522.2" y="-3582.9" />
    <node id="node_350" type="priority" x="-477.4" y="-2970.7" />
    <node id="node_351" type="priority" x="-471.65" y="-2924.0" />
    <node id="node_352" type="priority" x="-684.07" y="-3613.3" />
    <node id="node_353" type="priority" x="-1190.3" y="-3892.4" />
    <node id="node_354" type="priority" x="-1168.7" y="-3740.2" />
    <node id="node_355" type="priority" x="-610.58" y="-3532.4" />
    <node id="node_356" type="priority" x="-742.76" y="-3660.1" />
    <node id="node_357" type="priority" x="-747.62" y="-3712.2" />
    <node id="node_358" type="priority" x="-1150.1" y="-3746.5" />
    <node id="node_359" type="priority" x="-878.99" y="-3692.3" />
    <node id="node_360" type="priority" x="-413.35" y="-3199.2" />
    <node id="node_361" type="priority" x="-1672.8" y="-3326.8" />
    <node id="node_362" type="priority" x="-1540.1" y="-3260.2" />
    <node id="node_363" type="priority" x="-1111.1" y="-2798.7" />
    <node id="node_364" type="priority" x="-1088.9" y="-2822.0" />
    <node id="node_365" type="priority" x="-1071.8" y="2563.5" />
    <node id="node_366" type="priority" x="-1052.1" y="2548.3" />
    <node id="node_367" type="priority" x="-893.17" y="2225.9" />
    <node id="node_368" type="priority" x="-993.89" y="2189.8" />
    <node id="node_369" type="priority" x="-707.05" y="2060.7" />
    <node id="node_370" type="priority" x="-874.05" y="2237.6" />
    <node id="node_371" type="priority" x="-1200.7" y="2384.1" />
    <node id="node_372" type="priority" x="-1468.3" y="2780.4" />
    <node id="node_373" type="priority" x="-1247.2" y="2216.5" />
    <node id="node_374" type="priority" x="-2056.5" y="6390.4" />
    <node id="node_375" type="priority" x="-1653.5" y="4916.6" />
    <node id="node_376" type="priority" x="-2120.7" y="6402.5" />
    <node id="node_377" type="priority" x="-2118.5" y="5060.2" />
    <node id="node_378" type="priority" x="-2309.5" y="6546.6" />
    <node id="node_379" type="priority" x="-1277.5" y="2257.7" />
    <node id="node_380" type="priority" x="3255.1" y="-2977.8" />
    <node id="node_381" type="priority" x="3337.6" y="-3052.6" />
    <node id="node_382" type="priority" x="3283.4" y="-2968.2" />
    <node id="node_383" type="priority" x="3280.5" y="-2961.6" />
    <node id="node_384" type="priority" x="2941.6" y="-3080.3" />
    <node id="node_385" type="priority" x="3275.6" y="-2995.8" />
    <node id="node_386" type="priority" x="2935.7" y="-3087.1" />
    <node id="node_387" type="priority" x="2935.4" y="-3083.9" />
    <node id="node_388" type="priority" x="1415.0" y="-215.52" />
    <node id="node_389" type="priority" x="845.84" y="613.37" />
    <node id="node_390" type="priority" x="-4179.3" y="306.7" />
    <node id="node_391" type="priority" x="-4212.4" y="412.35" />
    <node id="node_392" type="priority" x="-4626.6" y="-106.55" />
    <node id="node_393" type="priority" x="-3562.2" y="-1291.8" />
    <node id="node_394" type="priority" x="-3611.4" y="-1280.7" />
    <node id="node_395" type="priority" x="-3799.5" y="-1136.0" />
    <node id="node_396" type="priority" x="-1776.5" y="1934.8" />
    <node id="node_397" type="priority" x="-2004.2" y="2402.8" />
    <node id="node_398" type="priority" x="-1840.1" y="2108.6" />
    <node id="node_399" type="priority" x="-1864.3" y="2123.5" />
    <node id="node_400" type="priority" x="-1744.8" y="2014.7" />
    <node id="node_401" type="priority" x="-1945.9" y="2252.3" />
    <node id="node_402" type="priority" x="-1901.3" y="2157.1" />
    <node id="node_403" type="priority" x="-1857.6" y="2100.6" />
    <node id="node_404" type="priority" x="-2038.9" y="2422.9" />
    <node id="node_405" type="priority" x="-1840.1" y="2247.7" />
    <node id="node_406" type="priority" x="-510.48" y="-2665.8" />
    <node id="node_407" type="priority" x="-596.38" y="-2110.6" />
    <node id="node_408" type="priority" x="-532.21" y="-2556.8" />
    <node id="node_409" type="priority" x="-668.19" y="-2162.5" />
    <node id="node_410" type="priority" x="-821.56" y="-2200.3" />
    <node id="node_411" type="priority" x="-736.22" y="-2225.6" />
    <node id="node_412" type="priority" x="1408.7" y="-2706.7" />
    <node id="node_413" type="priority" x="1517.6" y="-2603.0" />
    <node id="node_414" type="priority" x="625.46" y="442.85" />
    <node id="node_415" type="priority" x="1041.6" y="366.76" />
    <node id="node_416" type="priority" x="1694.4" y="-677.18" />
    <node id="node_417" type="priority" x="-505.89" y="1968.1" />
    <node id="node_418" type="priority" x="-1112.9" y="1763.5" />
    <node id="node_419" tl="GS_1163010482" type="traffic_light" x="-492.19" y="1943.2" />
    <node id="node_420" type="priority" x="-167.64" y="-437.39" />
    <node id="node_421" type="priority" x="479.89" y="-414.84" />
    <node id="node_422" type="priority" x="628.74" y="-731.03" />
    <node id="node_423" tl="GS_1166168346" type="traffic_light" x="627.47" y="-567.98" />
    <node id="node_424" type="priority" x="635.69" y="-843.67" />
    <node id="node_425" type="priority" x="718.29" y="-557.82" />
    <node id="node_426" type="priority" x="783.49" y="-713.62" />
    <node id="node_427" type="priority" x="642.92" y="-397.19" />
    <node id="node_428" type="priority" x="773.35" y="-686.71" />
    <node id="node_429" type="priority" x="471.95" y="-407.1" />
    <node id="node_430" tl="GS_1166168462" type="traffic_light" x="787.92" y="-603.98" />
    <node id="node_431" type="priority" x="525.09" y="-461.58" />
    <node id="node_432" tl="GS_1166168470" type="traffic_light" x="709.13" y="-838.01" />
    <node id="node_433" type="priority" x="607.33" y="-844.89" />
    <node id="node_434" tl="GS_1166168480" type="traffic_light" x="637.05" y="-710.88" />