<?xml version='1.0' encoding='UTF-8'?>
<connections xmlns:xsi="http://www.w3.org/2001/XMLSchema-instance" version="0.27" xsi:noNamespaceSchemaLocation="http://sumo.dlr.de/xsd/connections_file.xsd">
    <connection from="-100947955#2" fromLane="0" to="100947956#1" toLane="0" />
    <connection from="-100947955#2" fromLane="0" to="432416069#3" toLane="0" />
    <connection from="-100947955#2" fromLane="0" to="100947955#0" toLane="0" />

    <connection from="-100956297#0" fromLane="0" to="-100956303#2" toLane="0" />
    <connection from="-100956297#0" fromLane="0" to="100956303#3" toLane="0" />
    <connection from="-100956297#0" fromLane="0" to="100956297#0" toLane="0" />

    <connection from="-100956297#1" fromLane="0" to="-100956302#1" toLane="0" />
    <connection from="-100956297#1" fromLane="0" to="-100956297#0" toLane="0" />
    <connection from="-100956297#1" fromLane="0" to="100956297#1" toLane="0" />

    <connection from="-100956297#2" fromLane="0" to="-100956297#1" toLane="0" />
    <connection from="-100956297#2" fromLane="0" to="136491559#0" toLane="0" />
    <connection from="-100956297#2" fromLane="0" to="100956297#2" toLane="0" />

    <connection from="-100956297#3" fromLane="0" to="100956302#0" toLane="0" />
    <connection from="-100956297#3" fromLane="0" to="-100956297#2" toLane="0" />
    <connection from="-100956297#3" fromLane="0" to="100956297#3" toLane="0" />

    <connection from="-100956298#0" fromLane="0" to="-100956300#2" toLane="0" />
    <connection from="-100956298#0" fromLane="0" to="100956300#3" toLane="0" />
    <connection from="-100956298#0" fromLane="0" to="100956298#0" toLane="0" />

    <connection from="-100956298#1" fromLane="0" to="-136491559#0" toLane="0" />
    <connection from="-100956298#1" fromLane="0" to="-100956298#0" toLane="0" />
    <connection from="-100956298#1" fromLane="0" to="136491559#1" toLane="0" />
    <connection from="-100956298#1" fromLane="0" to="100956298#1" toLane="0" />

    <connection from="-100956300#0" fromLane="0" to="-173737173#2" toLane="0" />
    <connection from="-100956300#0" fromLane="0" to="173737173#3" toLane="0" />
    <connection from="-100956300#0" fromLane="0" to="100956300#0" toLane="0" />

    <connection from="-100956300#1" fromLane="0" to="100956304#0" toLane="0" />
    <connection from="-100956300#1" fromLane="0" to="-100956300#0" toLane="0" />
    <connection from="-100956300#1" fromLane="0" to="100956300#1" toLane="0" />

    <connection from="-100956300#2" fromLane="0" to="-100956303#3" toLane="0" />
    <connection from="-100956300#2" fromLane="0" to="-100956300#1" toLane="0" />
    <connection from="-100956300#2" fromLane="0" to="100956300#2" toLane="0" />

    <connection from="-100956300#3" fromLane="0" to="100956298#0" toLane="0" />
    <connection from="-100956300#3" fromLane="0" to="-100956300#2" toLane="0" />
    <connection from="-100956300#3" fromLane="0" to="100956300#3" toLane="0" />

    <connection from="-100956302#1" fromLane="0" to="-100956297#2" toLane="0" />
    <connection from="-100956302#1" fromLane="0" to="100956297#3" toLane="0" />
    <connection from="-100956302#1" fromLane="0" to="100956302#0" toLane="0" />

    <connection from="-100956303#0" fromLane="0" to="100956304#1" toLane="0" />
    <connection from="-100956303#0" fromLane="0" to="-100956304#0" toLane="0" />
    <connection from="-100956303#0" fromLane="0" to="100956303#0" toLane="0" />

    <connection from="-100956303#1" fromLane="0" to="-100956298#1" toLane="0" />
    <connection from="-100956303#1" fromLane="0" to="-100956303#0" toLane="0" />
    <connection from="-100956303#1" fromLane="0" to="100956303#1" toLane="0" />

    <connection from="-100956303#2" fromLane="0" to="-100956297#3" toLane="0" />
    <connection from="-100956303#2" fromLane="0" to="-100956303#1" toLane="0" />
    <connection from="-100956303#2" fromLane="0" to="100956303#2" toLane="0" />

    <connection from="-100956303#3" fromLane="0" to="100956297#0" toLane="0" />
    <connection from="-100956303#3" fromLane="0" to="-100956303#2" toLane="0" />
    <connection from="-100956303#3" fromLane="0" to="100956303#3" toLane="0" />

    <connection from="-100956304#0" fromLane="0" to="-100956300#0" toLane="0" />
    <connection from="-100956304#0" fromLane="0" to="100956300#1" toLane="0" />
    <connection from="-100956304#0" fromLane="0" to="100956304#0" toLane="0" />

    <connection from="-100956304#1" fromLane="0" to="-100956304#0" toLane="0" />
    <connection from="-100956304#1" fromLane="0" to="100956303#0" toLane="0" />
    <connection from="-100956304#1" fromLane="0" to="100956304#1" toLane="0" />

    <connection from="-100956304#2" fromLane="0" to="169548473" toLane="0" />
    <connection from="-100956304#2" fromLane="0" to="-100956304#1" toLane="0" />
    <connection from="-100956304#2" fromLane="0" to="100956304#2" toLane="0" />

    <connection from="-100956304#4" fromLane="0" to="-100956304#2" toLane="0" />
    <connection from="-100956304#4" fromLane="0" to="-204771870" toLane="0" />
    <connection from="-100956304#4" fromLane="0" to="100956304#3" toLane="0" />

    <connection from="-100956304#6" fromLane="0" to="-100956304#4" toLane="0" />
    <connection from="-100956304#6" fromLane="0" to="136491553#0" toLane="0" />
    <connection from="-100956304#6" fromLane="0" to="100956304#5" toLane="0" />

    <connection from="-100956304#7" fromLane="0" to="340248570" toLane="0" />
    <connection from="-100956304#7" fromLane="0" to="-100956304#6" toLane="0" />
    <connection from="-100956304#7" fromLane="0" to="169548469" toLane="0" />
    <connection from="-100956304#7" fromLane="0" to="100956304#7" toLane="0" />

    <connection from="-100971955" fromLane="0" to="-100971979#1" toLane="0" />
    <connection from="-100971955" fromLane="0" to="100971979#2" toLane="0" />
    <connection from="-100971955" fromLane="0" to="100971955" toLane="0" />

    <connection from="-100971977" fromLane="0" to="-404272837#0" toLane="0" />
    <connection from="-100971977" fromLane="0" to="404272837#1" toLane="0" />
    <connection from="-100971977" fromLane="0" to="100971977" toLane="0" />

    <connection from="-100971979#0" fromLane="0" to="24289442#10" toLane="0" />
    <connection from="-100971979#0" fromLane="0" to="-24289442#9" toLane="0" />
    <connection from="-100971979#0" fromLane="0" to="100971979#0" toLane="0" />

    <connection from="-100971979#1" fromLane="0" to="-404272838#0" toLane="0" />
    <connection from="-100971979#1" fromLane="0" to="-100971979#0" toLane="0" />
    <connection from="-100971979#1" fromLane="0" to="404272838#1" toLane="0" />
    <connection from="-100971979#1" fromLane="0" to="100971979#1" toLane="0" />

    <connection from="-100971989#0" fromLane="0" to="389948502#5" toLane="0" />
    <connection from="-100971989#0" fromLane="0" to="-389948502#4" toLane="0" />
    <connection from="-100971989#0" fromLane="0" to="100971989#0" toLane="0" />

    <connection from="-100971989#1" fromLane="0" to="-100971977" toLane="0" />
    <connection from="-100971989#1" fromLane="0" to="-100971989#0" toLane="0" />
    <connection from="-100971989#1" fromLane="0" to="100971989#1" toLane="0" />

    <connection from="-108742420" fromLane="0" to="228490400#1" toLane="0" />
    <connection from="-108742420" fromLane="0" to="-228490400#0" toLane="0" />
    <connection from="-108742420" fromLane="0" to="108742420" toLane="0" />

    <connection from="-109859931" fromLane="0" to="-24187212#0" toLane="0" />
    <connection from="-109859931" fromLane="0" to="24187212#1" toLane="0" />
    <connection from="-109859931" fromLane="0" to="109859931" toLane="0" />

    <connection from="-115311793" fromLane="0" to="115311790#2" toLane="0" />
    <connection from="-115311793" fromLane="0" to="115311793" toLane="0" />

    <connection from="-115315671" fromLane="0" to="-115311793" toLane="0" />
    <connection from="-115315671" fromLane="0" to="115315671" toLane="0" />

    <connection from="-117208309" fromLane="0" to="117208306#1" toLane="0" />
    <connection from="-117208309" fromLane="0" to="117208309" toLane="0" />

    <connection from="-117208318" fromLane="0" to="24290801#4" toLane="0" />
    <connection from="-117208318" fromLane="0" to="-24290801#3" toLane="0" />
    <connection from="-117208318" fromLane="0" to="117208318" toLane="0" />

    <connection from="-117208322" fromLane="0" to="24290801#3" toLane="0" />
    <connection from="-117208322" fromLane="0" to="-24290801#2" toLane="0" />
    <connection from="-117208322" fromLane="0" to="117208322" toLane="0" />

    <connection from="-117208334" fromLane="0" to="24290801#2" toLane="0" />
    <connection from="-117208334" fromLane="0" to="-24290801#1" toLane="0" />
    <connection from="-117208334" fromLane="0" to="117208334" toLane="0" />

    <connection from="-118261378" fromLane="0" to="-132911789" toLane="0" />
    <connection from="-118261378" fromLane="0" to="132911788" toLane="0" />
    <connection from="-118261378" fromLane="0" to="118261378" toLane="0" />

    <connection from="-118261380#0" fromLane="0" to="24186923#9" toLane="0" />
    <connection from="-118261380#0" fromLane="0" to="-24186923#8" toLane="0" />
    <connection from="-118261380#0" fromLane="0" to="118261380#0" toLane="0" />

    <connection from="-118261380#2" fromLane="0" to="-118261380#0" toLane="0" />
    <connection from="-118261380#2" fromLane="0" to="-132911788" toLane="0" />
    <connection from="-118261380#2" fromLane="0" to="118261380#1" toLane="0" />

    <connection from="-118261380#3" fromLane="0" to="-118261380#2" toLane="0" />
    <connection from="-118261380#3" fromLane="0" to="-118261385#2" toLane="0" />
    <connection from="-118261380#3" fromLane="0" to="118261380#3" toLane="0" />

    <connection from="-118261385#0" fromLane="0" to="24186923#1" toLane="0" />
    <connection from="-118261385#0" fromLane="0" to="-24186923#0" toLane="0" />
    <connection from="-118261385#0" fromLane="0" to="118261385#0" toLane="0" />

    <connection from="-118261385#1" fromLane="0" to="132911789" toLane="0" />
    <connection from="-118261385#1" fromLane="0" to="-118261385#0" toLane="0" />
    <connection from="-118261385#1" fromLane="0" to="118261385#1" toLane="0" />

    <connection from="-118261385#2" fromLane="0" to="-118261385#1" toLane="0" />
    <connection from="-118261385#2" fromLane="0" to="118261385#2" toLane="0" />

    <connection from="-118261910#0" fromLane="0" to="-24178385#1" toLane="0" />
    <connection from="-118261910#0" fromLane="0" to="118261910#0" toLane="0" />

    <connection from="-118261910#1" fromLane="0" to="-118261910#0" toLane="0" />
    <connection from="-118261910#1" fromLane="0" to="-118261910#7" toLane="0" />
    <connection from="-118261910#1" fromLane="0" to="118261910#1" toLane="0" />

    <connection from="-118261910#2" fromLane="0" to="-118261910#1" toLane="0" />
    <connection from="-118261910#2" fromLane="0" to="80429221" toLane="0" />
    <connection from="-118261910#2" fromLane="0" to="118261910#2" toLane="0" />

    <connection from="-118261910#3" fromLane="0" to="-118261910#2" toLane="0" />
    <connection from="-118261910#3" fromLane="0" to="-80429221" toLane="0" />
    <connection from="-118261910#3" fromLane="0" to="118261910#3" toLane="0" />

    <connection from="-118261910#4" fromLane="0" to="-118261910#3" toLane="0" />
    <connection from="-118261910#4" fromLane="0" to="-204619344" toLane="0" />
    <connection from="-118261910#4" fromLane="0" to="118261910#4" toLane="0" />

    <connection from="-118261910#5" fromLane="0" to="-118261910#4" toLane="0" />
    <connection from="-118261910#5" fromLane="0" to="80351106" toLane="0" />
    <connection from="-118261910#5" fromLane="0" to="118261910#5" toLane="0" />

    <connection from="-118261910#6" fromLane="0" to="-118261910#5" toLane="0" />
    <connection from="-118261910#6" fromLane="0" to="-80351106" toLane="0" />
    <connection from="-118261910#6" fromLane="0" to="118261910#6" toLane="0" />

    <connection from="-118261910#7" fromLane="0" to="-118261910#6" toLane="0" />
    <connection from="-118261910#7" fromLane="0" to="204619344" toLane="0" />
    <connection from="-118261910#7" fromLane="0" to="118261910#7" toLane="0" />

    <connection from="-118261912" fromLane="0" to="118261912" toLane="0" />

    <connection from="-118679933#1" fromLane="0" to="118211185#0" toLane="0" />
    <connection from="-118679933#1" fromLane="0" to="118679933#0" toLane="0" />

    <connection from="-119133883" fromLane="0" to="-24187183#7" toLane="0" />
    <connection from="-119133883" fromLane="0" to="24187183#8" toLane="0" />
    <connection from="-119133883" fromLane="0" to="119133883" toLane="0" />

    <connection from="-119133887" fromLane="0" to="24187187#2" toLane="0" />
    <connection from="-119133887" fromLane="0" to="-24187187#1" toLane="0" />
    <connection from="-119133887" fromLane="0" to="119133887" toLane="0" />

    <connection from="-119550130#0" fromLane="0" to="119550151#1" toLane="0" />
    <connection from="-119550130#0" fromLane="0" to="-119550151#0" toLane="0" />
    <connection from="-119550130#0" fromLane="0" to="119550130#0" toLane="0" />

    <connection from="-119550130#1" fromLane="0" to="119550148#1" toLane="0" />
    <connection from="-119550130#1" fromLane="0" to="-119550130#0" toLane="0" />
    <connection from="-119550130#1" fromLane="0" to="-119550148#0" toLane="0" />
    <connection from="-119550130#1" fromLane="0" to="119550130#1" toLane="0" />

    <connection from="-119550141" fromLane="0" to="119550148#4" toLane="0" />
    <connection from="-119550141" fromLane="0" to="-119550148#3" toLane="0" />
    <connection from="-119550141" fromLane="0" to="119550141" toLane="0" />

    <connection from="-119550148#0" fromLane="0" to="24156847#10" toLane="0" />
    <connection from="-119550148#0" fromLane="0" to="119550148#0" toLane="0" />

    <connection from="-119550148#1" fromLane="0" to="-119550130#0" toLane="0" />
    <connection from="-119550148#1" fromLane="0" to="-119550148#0" toLane="0" />
    <connection from="-119550148#1" fromLane="0" to="119550130#1" toLane="0" />
    <connection from="-119550148#1" fromLane="0" to="119550148#1" toLane="0" />

    <connection from="-119550148#2" fromLane="0" to="-119550148#1" toLane="0" />
    <connection from="-119550148#2" fromLane="0" to="119550154" toLane="0" />
    <connection from="-119550148#2" fromLane="0" to="119550148#2" toLane="0" />

    <connection from="-119550148#3" fromLane="0" to="-119550148#2" toLane="0" />
    <connection from="-119550148#3" fromLane="0" to="119550161" toLane="0" />
    <connection from="-119550148#3" fromLane="0" to="119550148#3" toLane="0" />

    <connection from="-119550148#4" fromLane="0" to="-119550148#3" toLane="0" />
    <connection from="-119550148#4" fromLane="0" to="119550141" toLane="0" />
    <connection from="-119550148#4" fromLane="0" to="119550148#4" toLane="0" />

    <connection from="-119550151#0" fromLane="0" to="119550151#0" toLane="0" />

    <connection from="-119550151#1" fromLane="0" to="-119550151#0" toLane="0" />
    <connection from="-119550151#1" fromLane="0" to="119550130#0" toLane="0" />
    <connection from="-119550151#1" fromLane="0" to="119550151#1" toLane="0" />

    <connection from="-119550151#2" fromLane="0" to="-119550151#1" toLane="0" />
    <connection from="-119550151#2" fromLane="0" to="-119550148#4" toLane="0" />
    <connection from="-119550151#2" fromLane="0" to="119550151#2" toLane="0" />

    <connection from="-119550154" fromLane="0" to="119550148#2" toLane="0" />
    <connection from="-119550154" fromLane="0" to="-119550148#1" toLane="0" />
    <connection from="-119550154" fromLane="0" to="119550154" toLane="0" />

    <connection from="-119550161" fromLane="0" to="119550148#3" toLane="0" />
    <connection from="-119550161" fromLane="0" to="-119550148#2" toLane="0" />
    <connection from="-119550161" fromLane="0" to="119550161" toLane="0" />

    <connection from="-120113816#0" fromLane="0" to="-430463665#3" toLane="0" />
    <connection from="-120113816#0" fromLane="0" to="430463665#4" toLane="0" />
    <connection from="-120113816#0" fromLane="0" to="120113816#0" toLane="0" />

    <connection from="-120113816#2" fromLane="0" to="-120113816#0" toLane="0" />
    <connection from="-120113816#2" fromLane="0" to="-27346835#4" toLane="0" />
    <connection from="-120113816#2" fromLane="0" to="120113816#1" toLane="0" />

    <connection from="-120113834#0" fromLane="0" to="120113834#0" toLane="0" />

    <connection from="-120113834#1" fromLane="0" to="-261885207" toLane="0" />
    <connection from="-120113834#1" fromLane="0" to="-120113834#0" toLane="0" />
    <connection from="-120113834#1" fromLane="0" to="120113834#1" toLane="0" />

    <connection from="-120113837" fromLane="0" to="27346835#0" toLane="0" />
    <connection from="-120113837" fromLane="0" to="120113837" toLane="0" />

    <connection from="-120261188" fromLane="0" to="24187206#1" toLane="0" />
    <connection from="-120261188" fromLane="0" to="-24187206#0" toLane="0" />
    <connection from="-120261188" fromLane="0" to="120261188" toLane="0" />

    <connection from="-120385132" fromLane="0" to="120385156#1" toLane="0" />
    <connection from="-120385132" fromLane="0" to="-120385156#0" toLane="0" />
    <connection from="-120385132" fromLane="0" to="120385132" toLane="0" />

    <connection from="-120385142#0" fromLane="0" to="24177928#4" toLane="0" />
    <connection from="-120385142#0" fromLane="0" to="-24177928#3" toLane="0" />
    <connection from="-120385142#0" fromLane="0" to="120385142#0" toLane="0" />

    <connection from="-120385142#1" fromLane="0" to="-120385142#0" toLane="0" />
    <connection from="-120385142#1" fromLane="0" to="120385146" toLane="0" />
    <connection from="-120385142#1" fromLane="0" to="120385142#1" toLane="0" />

    <connection from="-120385146" fromLane="0" to="120385142#1" toLane="0" />
    <connection from="-120385146" fromLane="0" to="-120385142#0" toLane="0" />
    <connection from="-120385146" fromLane="0" to="120385146" toLane="0" />

    <connection from="-120385156#0" fromLane="0" to="120385156#0" toLane="0" />

    <connection from="-120385156#1" fromLane="0" to="-120385156#0" toLane="0" />
    <connection from="-120385156#1" fromLane="0" to="120385132" toLane="0" />
    <connection from="-120385156#1" fromLane="0" to="120385156#1" toLane="0" />

    <connection from="-120385177" fromLane="0" to="66019302#0" toLane="0" />
    <connection from="-120385177" fromLane="0" to="-24177935#4" toLane="0" />
    <connection from="-120385177" fromLane="0" to="120385177" toLane="0" />

    <connection from="-121820318" fromLane="0" to="-27374203#0" toLane="0" />
    <connection from="-121820318" fromLane="0" to="27374203#1" toLane="0" />
    <connection from="-121820318" fromLane="0" to="121820318" toLane="0" />

    <connection from="-121820322#0" fromLane="0" to="190702348#1" toLane="0" />
    <connection from="-121820322#0" fromLane="0" to="-190702348#0" toLane="0" />
    <connection from="-121820322#0" fromLane="0" to="121820322#0" toLane="0" />

    <connection from="-121820322#1" fromLane="0" to="395952477" toLane="0" />
    <connection from="-121820322#1" fromLane="0" to="-121820322#0" toLane="0" />
    <connection from="-121820322#1" fromLane="0" to="-121820318" toLane="0" />
    <connection from="-121820322#1" fromLane="0" to="121820322#1" toLane="0" />

    <connection from="-121820328" fromLane="0" to="183523842#1" toLane="0" />
    <connection from="-121820328" fromLane="0" to="-183523842#0" toLane="0" />
    <connection from="-121820328" fromLane="0" to="121820328" toLane="0" />

    <connection from="-123120699" fromLane="0" to="123120699" toLane="0" />

    <connection from="-123343996#0" fromLane="0" to="-123343998#2" toLane="0" />
    <connection from="-123343996#0" fromLane="0" to="123343998#3" toLane="0" />
    <connection from="-123343996#0" fromLane="0" to="123343996#0" toLane="0" />

    <connection from="-123343996#1" fromLane="0" to="123343997" toLane="0" />
    <connection from="-123343996#1" fromLane="0" to="-123343996#0" toLane="0" />
    <connection from="-123343996#1" fromLane="0" to="123343996#1" toLane="0" />

    <connection from="-123343996#2" fromLane="0" to="-229643956" toLane="0" />
    <connection from="-123343996#2" fromLane="0" to="-123343996#1" toLane="0" />
    <connection from="-123343996#2" fromLane="0" to="123343996#2" toLane="0" />

    <connection from="-123343997" fromLane="0" to="-123343996#0" toLane="0" />
    <connection from="-123343997" fromLane="0" to="123343996#1" toLane="0" />
    <connection from="-123343997" fromLane="0" to="123343997" toLane="0" />

    <connection from="-123343998#0" fromLane="0" to="-123343996#2" toLane="0" />
    <connection from="-123343998#0" fromLane="0" to="24293425#4" toLane="0" />
    <connection from="-123343998#0" fromLane="0" to="24293430#0" toLane="0" />
    <connection from="-123343998#0" fromLane="0" to="123343998#0" toLane="0" />

    <connection from="-123343998#1" fromLane="0" to="229643956" toLane="0" />
    <connection from="-123343998#1" fromLane="0" to="-123343998#0" toLane="0" />
    <connection from="-123343998#1" fromLane="0" to="123343998#1" toLane="0" />

    <connection from="-123343998#2" fromLane="0" to="-123343997" toLane="0" />
    <connection from="-123343998#2" fromLane="0" to="-123343998#1" toLane="0" />
    <connection from="-123343998#2" fromLane="0" to="123343998#2" toLane="0" />

    <connection from="-123343998#3" fromLane="0" to="123343996#0" toLane="0" />
    <connection from="-123343998#3" fromLane="0" to="-123343998#2" toLane="0" />
    <connection from="-123343998#3" fromLane="0" to="123343998#3" toLane="0" />

    <connection from="-123421262" fromLane="0" to="232769575#3" toLane="0" />
    <connection from="-123421262" fromLane="0" to="-232769575#2" toLane="0" />
    <connection from="-123421262" fromLane="0" to="123421262" toLane="0" />

    <connection from="-125592721#1" fromLane="0" to="65489231#1" toLane="0" />
    <connection from="-125592721#1" fromLane="0" to="125592721#0" toLane="0" />

    <connection from="-127732569" fromLane="0" to="127732094#1" toLane="0" />
    <connection from="-127732569" fromLane="0" to="127732569" toLane="0" />

    <connection from="-127732570#0" fromLane="0" to="24293370#2" toLane="0" />
    <connection from="-127732570#0" fromLane="0" to="-24293370#1" toLane="0" />
    <connection from="-127732570#0" fromLane="0" to="127732570#0" toLane="0" />

    <connection from="-127732570#1" fromLane="0" to="-127732570#0" toLane="0" />
    <connection from="-127732570#1" fromLane="0" to="127732571" toLane="0" />
    <connection from="-127732570#1" fromLane="0" to="127732570#1" toLane="0" />

    <connection from="-127732570#2" fromLane="0" to="-127732570#1" toLane="0" />
    <connection from="-127732570#2" fromLane="0" to="127732570#2" toLane="0" />

    <connection from="-127732571" fromLane="0" to="127732570#1" toLane="0" />
    <connection from="-127732571" fromLane="0" to="-127732570#0" toLane="0" />
    <connection from="-127732571" fromLane="0" to="127732571" toLane="0" />

    <connection from="-127979767" fromLane="0" to="432411737#7" toLane="0" />
    <connection from="-127979767" fromLane="0" to="127979767" toLane="0" />

    <connection from="-127979768" fromLane="0" to="127979768" toLane="0" />

    <connection from="-127983894" fromLane="0" to="127983894" toLane="0" />

    <connection from="-132907330#0" fromLane="0" to="132907368" toLane="0" />
    <connection from="-132907330#0" fromLane="0" to="132907330#0" toLane="0" />

    <connection from="-132907330#2" fromLane="0" to="-132907330#0" toLane="0" />
    <connection from="-132907330#2" fromLane="0" to="132916961#0" toLane="0" />
    <connection from="-132907330#2" fromLane="0" to="132907330#2" toLane="0" />

    <connection from="-132911788" fromLane="0" to="118261378" toLane="0" />
    <connection from="-132911788" fromLane="0" to="-132911789" toLane="0" />
    <connection from="-132911788" fromLane="0" to="132911788" toLane="0" />

    <connection from="-132911789" fromLane="0" to="-118261385#0" toLane="0" />
    <connection from="-132911789" fromLane="0" to="118261385#1" toLane="0" />
    <connection from="-132911789" fromLane="0" to="132911789" toLane="0" />

    <connection from="-132911879" fromLane="0" to="-24186923#2" toLane="0" />
    <connection from="-132911879" fromLane="0" to="-118261378" toLane="0" />
    <connection from="-132911879" fromLane="0" to="24186923#4" toLane="0" />
    <connection from="-132911879" fromLane="0" to="132911879" toLane="0" />

    <connection from="-132917601#1" fromLane="0" to="132917603" toLane="0" />
    <connection from="-132917601#1" fromLane="0" to="132917601#0" toLane="0" />

    <connection from="-132917601#10" fromLane="0" to="-132917601#9" toLane="0" />
    <connection from="-132917601#10" fromLane="0" to="24289341#0" toLane="0" />
    <connection from="-132917601#10" fromLane="0" to="132917601#10" toLane="0" />

    <connection from="-132917601#2" fromLane="0" to="396231820#2" toLane="0" />
    <connection from="-132917601#2" fromLane="0" to="-132917601#1" toLane="0" />
    <connection from="-132917601#2" fromLane="0" to="-396231820#1" toLane="0" />
    <connection from="-132917601#2" fromLane="0" to="132917601#2" toLane="0" />

    <connection from="-132917601#3" fromLane="0" to="-399698464" toLane="0" />
    <connection from="-132917601#3" fromLane="0" to="-132917601#2" toLane="0" />
    <connection from="-132917601#3" fromLane="0" to="132917601#3" toLane="0" />

    <connection from="-132917601#4" fromLane="0" to="399698464" toLane="0" />
    <connection from="-132917601#4" fromLane="0" to="-132917601#3" toLane="0" />
    <connection from="-132917601#4" fromLane="0" to="132917601#4" toLane="0" />

    <connection from="-132917601#6" fromLane="0" to="-24289331#5" toLane="0" />
    <connection from="-132917601#6" fromLane="0" to="-132917601#4" toLane="0" />
    <connection from="-132917601#6" fromLane="0" to="132917601#5" toLane="0" />

    <connection from="-132917601#7" fromLane="0" to="-132917601#6" toLane="0" />
    <connection from="-132917601#7" fromLane="0" to="-24289342#1" toLane="0" />
    <connection from="-132917601#7" fromLane="0" to="132917601#7" toLane="0" />

    <connection from="-132917601#9" fromLane="0" to="-24289333#5" toLane="0" />
    <connection from="-132917601#9" fromLane="0" to="-132917601#7" toLane="0" />
    <connection from="-132917601#9" fromLane="0" to="24289333#6" toLane="0" />
    <connection from="-132917601#9" fromLane="0" to="132917601#8" toLane="0" />

    <connection from="-136050627" fromLane="0" to="-169194307#4" toLane="0" />
    <connection from="-136050627" fromLane="0" to="-136050633" toLane="0" />
    <connection from="-136050627" fromLane="0" to="395072831#0" toLane="0" />
    <connection from="-136050627" fromLane="0" to="136050627" toLane="0" />

    <connection from="-136050628" fromLane="0" to="394156634#33" toLane="1" />
    <connection from="-136050628" fromLane="1" to="394156634#33" toLane="2" />
    <connection from="-136050628" fromLane="1" to="136050628" toLane="1" />

    <connection from="-136050631#7" fromLane="0" to="-136050628" toLane="0" />
    <connection from="-136050631#7" fromLane="0" to="-136050628" toLane="1" />
    <connection from="-136050631#7" fromLane="0" to="136050631#0" toLane="0" />

    <connection from="-136050633" fromLane="0" to="394653399#2" toLane="0" />
    <connection from="-136050633" fromLane="0" to="-394653399#1" toLane="0" />
    <connection from="-136050633" fromLane="0" to="136050633" toLane="0" />

    <connection from="-136390784" fromLane="0" to="136390784" toLane="0" />

    <connection from="-136390797#0" fromLane="0" to="136390811" toLane="0" />
    <connection from="-136390797#0" fromLane="0" to="136390797#0" toLane="0" />

    <connection from="-136390797#1" fromLane="0" to="-136390810" toLane="0" />
    <connection from="-136390797#1" fromLane="0" to="-136390797#0" toLane="0" />
    <connection from="-136390797#1" fromLane="0" to="136390797#1" toLane="0" />

    <connection from="-136390797#3" fromLane="0" to="-136390797#1" toLane="0" />
    <connection from="-136390797#3" fromLane="0" to="-136390813" toLane="0" />
    <connection from="-136390797#3" fromLane="0" to="136390797#3" toLane="0" />

    <connection from="-136390810" fromLane="0" to="136390810" toLane="0" />

    <connection from="-136390813" fromLane="0" to="136390813" toLane="0" />

    <connection from="-136491553#0" fromLane="0" to="100956304#5" toLane="0" />
    <connection from="-136491553#0" fromLane="0" to="-100956304#4" toLane="0" />
    <connection from="-136491553#0" fromLane="0" to="136491553#0" toLane="0" />

    <connection from="-136491553#1" fromLane="0" to="-136491553#0" toLane="0" />
    <connection from="-136491553#1" fromLane="0" to="204771870" toLane="0" />
    <connection from="-136491553#1" fromLane="0" to="136491553#1" toLane="0" />

    <connection from="-136491553#2" fromLane="0" to="-27347227#5" toLane="0" />
    <connection from="-136491553#2" fromLane="0" to="-136491553#1" toLane="0" />
    <connection from="-136491553#2" fromLane="0" to="136491553#2" toLane="0" />

    <connection from="-136491553#3" fromLane="0" to="-169548480#1" toLane="0" />
    <connection from="-136491553#3" fromLane="0" to="-136491553#2" toLane="0" />