<?xml version='1.0' encoding='UTF-8'?>
<nodes xmlns:xsi="http://www.w3.org/2001/XMLSchema-instance" version="0.27" xsi:noNamespaceSchemaLocation="http://sumo.dlr.de/xsd/edges_file.xsd"><node avg_slowdown_ratio="0.999280057598" id="node_10x10" junction="True" old_x="1000.0" old_y="1000.0" type="right_before_left" weight_num="4.0" weight_sum="3.99712023039" x="1000.0" y="1000.0" />
    <node avg_slowdown_ratio="0.0" id="node_00x00" junction="True" old_x="0.0" old_y="0.0" type="right_before_left" weight_num="2.0" weight_sum="0.0" x="0.0" y="0.0" />
    <node avg_slowdown_ratio="0.0" id="node_00x01" junction="True" old_x="0.0" old_y="100.0" type="right_before_left" weight_num="3.0" weight_sum="0.0" x="0.0" y="100.0" />
    <node avg_slowdown_ratio="0.0" id="node_00x02" junction="True" old_x="0.0" old_y="200.0" type="right_before_left" weight_num="3.0" weight_sum="0.0" x="0.0" y="200.0" />
    <node avg_slowdown_ratio="0.0" id="node_00x03" junction="True" old_x="0.0" old_y="300.0" type="right_before_left" weight_num="3.0" weight_sum="0.0" x="0.0" y="300.0" />
    <node avg_slowdown_ratio="0.0" id="node_00x04" junction="True" old_x="0.0" old_y="400.0" type="right_before_left" weight_num="3.0" weight_sum="0.0" x="0.0" y="400.0" />
    <node avg_slowdown_ratio="0.0" id="node_00x05" junction="True" old_x="0.0" old_y="500.0" type="right_before_left" weight_num="3.0" weight_sum="0.0" x="0.0" y="500.0" />
    <node avg_slowdown_ratio="0.0" id="node_00x06" junction="True" old_x="0.0" old_y="600.0" type="right_before_left" weight_num="3.0" weight_sum="0.0" x="0.0" y="600.0" />
    <node avg_slowdown_ratio="0.0" id="node_00x07" junction="True" old_x="0.0" old_y="700.0" type="right_before_left" weight_num="3.0" weight_sum="0.0" x="0.0" y="700.0" />
    <node avg_slowdown_ratio="0.0" id="node_00x08" junction="True" old_x="0.0" old_y="800.0" type="right_before_left" weight_num="3.0" weight_sum="0.0" x="0.0" y="800.0" />
    <node avg_slowdown_ratio="0.0" id="node_00x09" junction="True" old_x="0.0" old_y="900.0" type="right_before_left" weight_num="3.0" weight_sum="0.0" x="0.0" y="900.0" />
    <node avg_slowdown_ratio="0.0" id="node_00x10" junction="True" old_x="0.0" old_y="1000.0" type="right_before_left" weight_num="3.0" weight_sum="0.0" x="0.0" y="1000.0" />
    <node avg_slowdown_ratio="0.0" id="node_00x11" junction="True" old_x="0.0" old_y="1100.0" type="right_before_left" weight_num="3.0" weight_sum="0.0" x="0.0" y="1100.0" />
    <node avg_slowdown_ratio="0.0" id="node_00x12" junction="True" old_x="0.0" old_y="1200.0" type="right_before_left" weight_num="3.0" weight_sum="0.0" x="0.0" y="1200.0" />
    <node avg_slowdown_ratio="0.0" id="node_00x13" junction="True" old_x="0.0" old_y="1300.0" type="right_before_left" weight_num="3.0" weight_sum="0.0" x="0.0" y="1300.0" />
    <node avg_slowdown_ratio="0.0" id="node_00x14" junction="True" old_x="0.0" old_y="1400.0" type="right_before_left" weight_num="3.0" weight_sum="0.0" x="0.0" y="1400.0" />
    <node avg_slowdown_ratio="0.0" id="node_00x15" junction="True" old_x="0.0" old_y="1500.0" type="right_before_left" weight_num="3.0" weight_sum="0.0" x="0.0" y="1500.0" />
    <node avg_slowdown_ratio="0.0" id="node_00x16" junction="True" old_x="0.0" old_y="1600.0" type="right_before_left" weight_num="3.0" weight_sum="0.0" x="0.0" y="1600.0" />
    <node avg_slowdown_ratio="0.0" id="node_00x17" junction="True" old_x="0.0" old_y="1700.0" type="right_before_left" weight_num="3.0" weight_sum="0.0" x="0.0" y="1700.0" />
    <node avg_slowdown_ratio="0.0" id="node_00x18" junction="True" old_x="0.0" old_y="1800.0" type="right_before_left" weight_num="3.0" weight_sum="0.0" x="0.0" y="1800.0" />
    <node avg_slowdown_ratio="0.0" id="node_00x19" junction="True" old_x="0.0" old_y="1900.0" type="right_before_left" weight_num="3.0" weight_sum="0.0" x="0.0" y="1900.0" />
    <node avg_slowdown_ratio="0.0" id="node_00x20" junction="True" old_x="0.0" old_y="2000.0" type="right_before_left" weight_num="2.0" weight_sum="0.0" x="0.0" y="2000.0" />
    <node avg_slowdown_ratio="0.0" id="node_01x00" junction="True" old_x="100.0" old_y="0.0" type="right_before_left" weight_num="3.0" weight_sum="0.0" x="100.0" y="0.0" />
    <node avg_slowdown_ratio="0.0" id="node_01x01" junction="True" old_x="100.0" old_y="100.0" type="right_before_left" weight_num="4.0" weight_sum="0.0" x="100.0" y="100.0" />
    <node avg_slowdown_ratio="0.0" id="node_01x02" junction="True" old_x="100.0" old_y="200.0" type="right_before_left" weight_num="4.0" weight_sum="0.0" x="100.0" y="200.0" />
    <node avg_slowdown_ratio="0.0" id="node_01x03" junction="True" old_x="100.0" old_y="300.0" type="right_before_left" weight_num="4.0" weight_sum="0.0" x="100.0" y="300.0" />
    <node avg_slowdown_ratio="0.0" id="node_01x04" junction="True" old_x="100.0" old_y="400.0" type="right_before_left" weight_num="4.0" weight_sum="0.0" x="100.0" y="400.0" />
    <node avg_slowdown_ratio="0.0" id="node_01x05" junction="True" old_x="100.0" old_y="500.0" type="right_before_left" weight_num="4.0" weight_sum="0.0" x="100.0" y="500.0" />
    <node avg_slowdown_ratio="0.0" id="node_01x06" junction="True" old_x="100.0" old_y="600.0" type="right_before_left" weight_num="4.0" weight_sum="0.0" x="99.9079256617" x_displacement_sum="-0.0920743383355" y="599.959078072" y_displacement_sum="-0.0409219281491" />
    <node avg_slowdown_ratio="0.0" id="node_01x07" junction="True" old_x="100.0" old_y="700.0" type="right_before_left" weight_num="4.0" weight_sum="0.0" x="98.8980141876" x_displacement_sum="-1.10198581239" y="699.632671396" y_displacement_sum="-0.367328604132" />
    <node avg_slowdown_ratio="0.0" id="node_01x08" junction="True" old_x="100.0" old_y="800.0" type="right_before_left" weight_num="4.0" weight_sum="0.0" x="97.4789114084" x_displacement_sum="-2.52108859161" y="799.439758091" y_displacement_sum="-0.560241909247" />
    <node avg_slowdown_ratio="0.0" id="node_01x09" junction="True" old_x="100.0" old_y="900.0" type="right_before_left" weight_num="4.0" weight_sum="0.0" x="96.3376937888" x_displacement_sum="-3.66230621121" y="899.593077088" y_displacement_sum="-0.406922912356" />
    <node avg_slowdown_ratio="0.0" id="node_01x10" junction="True" old_x="100.0" old_y="1000.0" type="right_before_left" weight_num="4.0" weight_sum="0.0" x="95.9075148445" x_displacement_sum="-4.09248515547" y="1000.0" y_displacement_sum="0.0" />
    <node avg_slowdown_ratio="0.0" id="node_01x11" junction="True" old_x="100.0" old_y="1100.0" type="right_before_left" weight_num="4.0" weight_sum="0.0" x="96.3376937888" x_displacement_sum="-3.66230621121" y="1100.40692291" y_displacement_sum="0.406922912356" />
    <node avg_slowdown_ratio="0.0" id="node_01x12" junction="True" old_x="100.0" old_y="1200.0" type="right_before_left" weight_num="4.0" weight_sum="0.0" x="97.4789114084" x_displacement_sum="-2.52108859161" y="1200.56024191" y_displacement_sum="0.560241909247" />
    <node avg_slowdown_ratio="0.0" id="node_01x13" junction="True" old_x="100.0" old_y="1300.0" type="right_before_left" weight_num="4.0" weight_sum="0.0" x="98.8980141876" x_displacement_sum="-1.10198581239" y="1300.3673286" y_displacement_sum="0.367328604132" />
    <node avg_slowdown_ratio="0.0" id="node_01x14" junction="True" old_x="100.0" old_y="1400.0" type="right_before_left" weight_num="4.0" weight_sum="0.0" x="99.9079256617" x_displacement_sum="-0.0920743383355" y="1400.04092193" y_displacement_sum="0.0409219281491" />
    <node avg_slowdown_ratio="0.0" id="node_01x15" junction="True" old_x="100.0" old_y="1500.0" type="right_before_left" weight_num="4.0" weight_sum="0.0" x="100.0" y="1500.0" />
    <node avg_slowdown_ratio="0.0" id="node_01x16" junction="True" old_x="100.0" old_y="1600.0" type="right_before_left" weight_num="4.0" weight_sum="0.0" x="100.0" y="1600.0" />
    <node avg_slowdown_ratio="0.0" id="node_01x17" junction="True" old_x="100.0" old_y="1700.0" type="right_before_left" weight_num="4.0" weight_sum="0.0" x="100.0" y="1700.0" />
    <node avg_slowdown_ratio="0.0" id="node_01x18" junction="True" old_x="100.0" old_y="1800.0" type="right_before_left" weight_num="4.0" weight_sum="0.0" x="100.0" y="1800.0" />
    <node avg_slowdown_ratio="0.0" id="node_01x19" junction="True" old_x="100.0" old_y="1900.0" type="right_before_left" weight_num="4.0" weight_sum="0.0" x="100.0" y="1900.0" />
    <node avg_slowdown_ratio="0.0" id="node_01x20" junction="True" old_x="100.0" old_y="2000.0" type="right_before_left" weight_num="3.0" weight_sum="0.0" x="100.0" y="2000.0" />
    <node avg_slowdown_ratio="0.0" id="node_02x00" junction="True" old_x="200.0" old_y="0.0" type="right_before_left" weight_num="3.0" weight_sum="0.0" x="200.0" y="0.0" />
    <node avg_slowdown_ratio="0.0" id="node_02x01" junction="True" old_x="200.0" old_y="100.0" type="right_before_left" weight_num="4.0" weight_sum="0.0" x="200.0" y="100.0" />
    <node avg_slowdown_ratio="0.0" id="node_02x02" junction="True" old_x="200.0" old_y="200.0" type="right_before_left" weight_num="4.0" weight_sum="0.0" x="200.0" y="200.0" />
    <node avg_slowdown_ratio="0.0" id="node_02x03" junction="True" old_x="200.0" old_y="300.0" type="right_before_left" weight_num="4.0" weight_sum="0.0" x="200.0" y="300.0" />
    <node avg_slowdown_ratio="0.0" id="node_02x04" junction="True" old_x="200.0" old_y="400.0" type="right_before_left" weight_num="4.0" weight_sum="0.0" x="200.0" y="400.0" />
    <node avg_slowdown_ratio="0.0" id="node_02x05" junction="True" old_x="200.0" old_y="500.0" type="right_before_left" weight_num="4.0" weight_sum="0.0" x="198.810223651" x_displacement_sum="-1.18977634858" y="499.256389782" y_displacement_sum="-0.743610217865" />
    <node avg_slowdown_ratio="0.0" id="node_02x06" junction="True" old_x="200.0" old_y="600.0" type="right_before_left" weight_num="4.0" weight_sum="0.0" x="195.957297725" x_displacement_sum="-4.04270227488" y="597.978648863" y_displacement_sum="-2.02135113744" />
    <node avg_slowdown_ratio="0.0" id="node_02x07" junction="True" old_x="200.0" old_y="700.0" type="right_before_left" weight_num="4.0" weight_sum="0.0" x="192.464538029" x_displacement_sum="-7.53546197106" y="697.174201761" y_displacement_sum="-2.82579823915" />
    <node avg_slowdown_ratio="0.0" id="node_02x08" junction="True" old_x="200.0" old_y="800.0" type="right_before_left" weight_num="4.0" weight_sum="0.0" x="189.21364991" x_displacement_sum="-10.7863500902" y="797.303412477" y_displacement_sum="-2.69658752256" />
    <node avg_slowdown_ratio="0.0" id="node_02x09" junction="True" old_x="200.0" old_y="900.0" type="right_before_left" weight_num="4.0" weight_sum="0.0" x="186.931313004" x_displacement_sum="-13.0686869957" y="898.366414126" y_displacement_sum="-1.63358587447" />
    <node avg_slowdown_ratio="0.0" id="node_02x10" junction="True" old_x="200.0" old_y="1000.0" type="right_before_left" weight_num="4.0" weight_sum="0.0" x="186.111601379" x_displacement_sum="-13.8883986206" y="1000.0" y_displacement_sum="0.0" />
    <node avg_slowdown_ratio="0.0" id="node_02x11" junction="True" old_x="200.0" old_y="1100.0" type="right_before_left" weight_num="4.0" weight_sum="0.0" x="186.931313004" x_displacement_sum="-13.0686869957" y="1101.63358587" y_displacement_sum="1.63358587447" />
    <node avg_slowdown_ratio="0.0" id="node_02x12" junction="True" old_x="200.0" old_y="1200.0" type="right_before_left" weight_num="4.0" weight_sum="0.0" x="189.21364991" x_displacement_sum="-10.7863500902" y="1202.69658752" y_displacement_sum="2.69658752256" />
    <node avg_slowdown_ratio="0.0" id="node_02x13" junction="True" old_x="200.0" old_y="1300.0" type="right_before_left" weight_num="4.0" weight_sum="0.0" x="192.464538029" x_displacement_sum="-7.53546197106" y="1302.82579824" y_displacement_sum="2.82579823915" />
    <node avg_slowdown_ratio="0.0" id="node_02x14" junction="True" old_x="200.0" old_y="1400.0" type="right_before_left" weight_num="4.0" weight_sum="0.0" x="195.957297725" x_displacement_sum="-4.04270227488" y="1402.02135114" y_displacement_sum="2.02135113744" />
    <node avg_slowdown_ratio="0.0" id="node_02x15" junction="True" old_x="200.0" old_y="1500.0" type="right_before_left" weight_num="4.0" weight_sum="0.0" x="198.810223651" x_displacement_sum="-1.18977634858" y="1500.74361022" y_displacement_sum="0.743610217865" />
    <node avg_slowdown_ratio="0.0" id="node_02x16" junction="True" old_x="200.0" old_y="1600.0" type="right_before_left" weight_num="4.0" weight_sum="0.0" x="200.0" y="1600.0" />
    <node avg_slowdown_ratio="0.0" id="node_02x17" junction="True" old_x="200.0" old_y="1700.0" type="right_before_left" weight_num="4.0" weight_sum="0.0" x="200.0" y="1700.0" />
    <node avg_slowdown_ratio="0.0" id="node_02x18" junction="True" old_x="200.0" old_y="1800.0" type="right_before_left" weight_num="4.0" weight_sum="0.0" x="200.0" y="1800.0" />
    <node avg_slowdown_ratio="0.0" id="node_02x19" junction="True" old_x="200.0" old_y="1900.0" type="right_before_left" weight_num="4.0" weight_sum="0.0" x="200.0" y="1900.0" />
    <node avg_slowdown_ratio="0.0" id="node_02x20" junction="True" old_x="200.0" old_y="2000.0" type="right_before_left" weight_num="3.0" weight_sum="0.0" x="200.0" y="2000.0" />
    <node avg_slowdown_ratio="0.0" id="node_03x00" junction="True" old_x="300.0" old_y="0.0" type="right_before_left" weight_num="3.0" weight_sum="0.0" x="300.0" y="0.0" />
    <node avg_slowdown_ratio="0.0" id="node_03x01" junction="True" old_x="300.0" old_y="100.0" type="right_before_left" weight_num="4.0" weight_sum="0.0" x="300.0" y="100.0" />
    <node avg_slowdown_ratio="0.0" id="node_03x02" junction="True" old_x="300.0" old_y="200.0" type="right_before_left" weight_num="4.0" weight_sum="0.0" x="300.0" y="200.0" />
    <node avg_slowdown_ratio="0.0" id="node_03x03" junction="True" old_x="300.0" old_y="300.0" type="right_before_left" weight_num="4.0" weight_sum="0.0" x="299.969763675" x_displacement_sum="-0.0302363248914" y="299.969763675" y_displacement_sum="-0.0302363248914" />
    <node avg_slowdown_ratio="0.0" id="node_03x04" junction="True" old_x="300.0" old_y="400.0" type="right_before_left" weight_num="4.0" weight_sum="0.0" x="298.039153318" x_displacement_sum="-1.96084668236" y="398.319274272" y_displacement_sum="-1.68072572774" />
    <node avg_slowdown_ratio="0.0" id="node_03x05" junction="True" old_x="300.0" old_y="500.0" type="right_before_left" weight_num="4.0" weight_sum="0.0" x="293.906959392" x_displacement_sum="-6.09304060765" y="495.647828137" y_displacement_sum="-4.35217186261" />
    <node avg_slowdown_ratio="0.0" id="node_03x06" junction="True" old_x="300.0" old_y="600.0" type="right_before_left" weight_num="4.0" weight_sum="0.0" x="288.564898879" x_displacement_sum="-11.4351011213" y="593.465656502" y_displacement_sum="-6.53434349786" />
    <node avg_slowdown_ratio="0.0" id="node_03x07" junction="True" old_x="300.0" old_y="700.0" type="right_before_left" weight_num="4.0" weight_sum="0.0" x="282.957286811" x_displacement_sum="-17.0427131887" y="692.695980062" y_displacement_sum="-7.304019938" />
    <node avg_slowdown_ratio="0.0" id="node_03x08" junction="True" old_x="300.0" old_y="800.0" type="right_before_left" weight_num="4.0" weight_sum="0.0" x="278.025419098" x_displacement_sum="-21.9745809018" y="793.721548314" y_displacement_sum="-6.27845168624" />
    <node avg_slowdown_ratio="0.0" id="node_03x09" junction="True" old_x="300.0" old_y="900.0" type="right_before_left" weight_num="4.0" weight_sum="0.0" x="274.637029228" x_displacement_sum="-25.3629707725" y="896.376718461" y_displacement_sum="-3.62328153894" />
    <node avg_slowdown_ratio="0.0" id="node_03x10" junction="True" old_x="300.0" old_y="1000.0" type="right_before_left" weight_num="4.0" weight_sum="0.0" x="273.428653797" x_displacement_sum="-26.5713462028" y="1000.0" y_displacement_sum="0.0" />
    <node avg_slowdown_ratio="0.0" id="node_03x11" junction="True" old_x="300.0" old_y="1100.0" type="right_before_left" weight_num="4.0" weight_sum="0.0" x="274.637029228" x_displacement_sum="-25.3629707725" y="1103.62328154" y_displacement_sum="3.62328153894" />
    <node avg_slowdown_ratio="0.0" id="node_03x12" junction="True" old_x="300.0" old_y="1200.0" type="right_before_left" weight_num="4.0" weight_sum="0.0" x="278.025419098" x_displacement_sum="-21.9745809018" y="1206.27845169" y_displacement_sum="6.27845168624" />
    <node avg_slowdown_ratio="0.0" id="node_03x13" junction="True" old_x="300.0" old_y="1300.0" type="right_before_left" weight_num="4.0" weight_sum="0.0" x="282.957286811" x_displacement_sum="-17.0427131887" y="1307.30401994" y_displacement_sum="7.304019938" />
    <node avg_slowdown_ratio="0.0" id="node_03x14" junction="True" old_x="300.0" old_y="1400.0" type="right_before_left" weight_num="4.0" weight_sum="0.0" x="288.564898879" x_displacement_sum="-11.4351011213" y="1406.5343435" y_displacement_sum="6.53434349786" />
    <node avg_slowdown_ratio="0.0" id="node_03x15" junction="True" old_x="300.0" old_y="1500.0" type="right_before_left" weight_num="4.0" weight_sum="0.0" x="293.906959392" x_displacement_sum="-6.09304060765" y="1504.35217186" y_displacement_sum="4.35217186261" />
    <node avg_slowdown_ratio="0.0" id="node_03x16" junction="True" old_x="300.0" old_y="1600.0" type="right_before_left" weight_num="4.0" weight_sum="0.0" x="298.039153318" x_displacement_sum="-1.96084668236" y="1601.68072573" y_displacement_sum="1.68072572774" />
    <node avg_slowdown_ratio="0.0" id="node_03x17" junction="True" old_x="300.0" old_y="1700.0" type="right_before_left" weight_num="4.0" weight_sum="0.0" x="299.969763675" x_displacement_sum="-0.0302363248914" y="1700.03023632" y_displacement_sum="0.0302363248914" />
    <node avg_slowdown_ratio="0.0" id="node_03x18" junction="True" old_x="300.0" old_y="1800.0" type="right_before_left" weight_num="4.0" weight_sum="0.0" x="300.0" y="1800.0" />
    <node avg_slowdown_ratio="0.0" id="node_03x19" junction="True" old_x="300.0" old_y="1900.0" type="right_before_left" weight_num="4.0" weight_sum="0.0" x="300.0" y="1900.0" />
    <node avg_slowdown_ratio="0.0" id="node_03x20" junction="True" old_x="300.0" old_y="2000.0" type="right_before_left" weight_num="3.0" weight_sum="0.0" x="300.0" y="2000.0" />
    <node avg_slowdown_ratio="0.0" id="node_04x00" junction="True" old_x="400.0" old_y="0.0" type="right_before_left" weight_num="3.0" weight_sum="0.0" x="400.0" y="0.0" />
    <node avg_slowdown_ratio="0.0" id="node_04x01" junction="True" old_x="400.0" old_y="100.0" type="right_before_left" weight_num="4.0" weight_sum="0.0" x="400.0" y="100.0" />
    <node avg_slowdown_ratio="0.0" id="node_04x02" junction="True" old_x="400.0" old_y="200.0" type="right_before_left" weight_num="4.0" weight_sum="0.0" x="400.0" y="200.0" />
    <node avg_slowdown_ratio="0.0" id="node_04x03" junction="True" old_x="400.0" old_y="300.0" type="right_before_left" weight_num="4.0" weight_sum="0.0" x="398.319274272" x_displacement_sum="-1.68072572774" y="298.039153318" y_displacement_sum="-1.96084668236" />
    <node avg_slowdown_ratio="0.0" id="node_04x04" junction="True" old_x="400.0" old_y="400.0" type="right_before_left" weight_num="4.0" weight_sum="0.0" x="393.900345294" x_displacement_sum="-6.09965470583" y="393.900345294" y_displacement_sum="-6.09965470583" />
    <node avg_slowdown_ratio="0.0" id="node_04x05" junction="True" old_x="400.0" old_y="500.0" type="right_before_left" weight_num="4.0" weight_sum="0.0" x="387.599289906" x_displacement_sum="-12.4007100938" y="489.666074922" y_displacement_sum="-10.3339250782" />
    <node avg_slowdown_ratio="0.0" id="node_04x06" junction="True" old_x="400.0" old_y="600.0" type="right_before_left" weight_num="4.0" weight_sum="0.0" x="380.229205028" x_displacement_sum="-19.770794972" y="586.819470019" y_displacement_sum="-13.1805299813" />
    <node avg_slowdown_ratio="0.0" id="node_04x07" junction="True" old_x="400.0" old_y="700.0" type="right_before_left" weight_num="4.0" weight_sum="0.0" x="372.70913037" x_displacement_sum="-27.2908696297" y="686.354565185" y_displacement_sum="-13.6454348148" />
    <node avg_slowdown_ratio="0.0" id="node_04x08" junction="True" old_x="400.0" old_y="800.0" type="right_before_left" weight_num="4.0" weight_sum="0.0" x="366.107447306" x_displacement_sum="-33.8925526944" y="788.702482435" y_displacement_sum="-11.2975175648" />
    <node avg_slowdown_ratio="0.0" id="node_04x09" junction="True" old_x="400.0" old_y="900.0" type="right_before_left" weight_num="4.0" weight_sum="0.0" x="361.539795298" x_displacement_sum="-38.4602047025" y="893.589965883" y_displacement_sum="-6.41003411709" />
    <node avg_slowdown_ratio="0.0" id="node_04x10" junction="True" old_x="400.0" old_y="1000.0" type="right_before_left" weight_num="4.0" weight_sum="0.0" x="359.900965457" x_displacement_sum="-40.0990345426" y="1000.0" y_displacement_sum="0.0" />
    <node avg_slowdown_ratio="0.0" id="node_04x11" junction="True" old_x="400.0" old_y="1100.0" type="right_before_left" weight_num="4.0" weight_sum="0.0" x="361.539795298" x_displacement_sum="-38.4602047025" y="1106.41003412" y_displacement_sum="6.41003411709" />
    <node avg_slowdown_ratio="0.0" id="node_04x12" junction="True" old_x="400.0" old_y="1200.0" type="right_before_left" weight_num="4.0" weight_sum="0.0" x="366.107447306" x_displacement_sum="-33.8925526944" y="1211.29751756" y_displacement_sum="11.2975175648" />
    <node avg_slowdown_ratio="0.0" id="node_04x13" junction="True" old_x="400.0" old_y="1300.0" type="right_before_left" weight_num="4.0" weight_sum="0.0" x="372.70913037" x_displacement_sum="-27.2908696297" y="1313.64543481" y_displacement_sum="13.6454348148" />
    <node avg_slowdown_ratio="0.0" id="node_04x14" junction="True" old_x="400.0" old_y="1400.0" type="right_before_left" weight_num="4.0" weight_sum="0.0" x="380.229205028" x_displacement_sum="-19.770794972" y="1413.18052998" y_displacement_sum="13.1805299813" />
    <node avg_slowdown_ratio="0.0" id="node_04x15" junction="True" old_x="400.0" old_y="1500.0" type="right_before_left" weight_num="4.0" weight_sum="0.0" x="387.599289906" x_displacement_sum="-12.4007100938" y="1510.33392508" y_displacement_sum="10.3339250782" />
    <node avg_slowdown_ratio="0.0" id="node_04x16" junction="True" old_x="400.0" old_y="1600.0" type="right_before_left" weight_num="4.0" weight_sum="0.0" x="393.900345294" x_displacement_sum="-6.09965470583" y="1606.09965471" y_displacement_sum="6.09965470583" />
    <node avg_slowdown_ratio="0.0" id="node_04x17" junction="True" old_x="400.0" old_y="1700.0" type="right_before_left" weight_num="4.0" weight_sum="0.0" x="398.319274272" x_displacement_sum="-1.68072572774" y="1701.96084668" y_displacement_sum="1.96084668236" />
    <node avg_slowdown_ratio="0.0" id="node_04x18" junction="True" old_x="400.0" old_y="1800.0" type="right_before_left" weight_num="4.0" weight_sum="0.0" x="400.0" y="1800.0" />
    <node avg_slowdown_ratio="0.0" id="node_04x19" junction="True" old_x="400.0" old_y="1900.0" type="right_before_left" weight_num="4.0" weight_sum="0.0" x="400.0" y="1900.0" />
    <node avg_slowdown_ratio="0.0" id="node_04x20" junction="True" old_x="400.0" old_y="2000.0" type="right_before_left" weight_num="3.0" weight_sum="0.0" x="400.0" y="2000.0" />
    <node avg_slowdown_ratio="0.0" id="node_05x00" junction="True" old_x="500.0" old_y="0.0" type="right_before_left" weight_num="3.0" weight_sum="0.0" x="500.0" y="0.0" />
    <node avg_slowdown_ratio="0.0" id="node_05x01" junction="True" old_x="500.0" old_y="100.0" type="right_before_left" weight_num="4.0" weight_sum="0.0" x="500.0" y="100.0" />
    <node avg_slowdown_ratio="0.0" id="node_05x02" junction="True" old_x="500.0" old_y="200.0" type="right_before_left" weight_num="4.0" weight_sum="0.0" x="499.256389782" x_displacement_sum="-0.743610217865" y="198.810223651" y_displacement_sum="-1.18977634858" />
    <node avg_slowdown_ratio="0.0" id="node_05x03" junction="True" old_x="500.0" old_y="300.0" type="right_before_left" weight_num="4.0" weight_sum="0.0" x="495.647828137" x_displacement_sum="-4.35217186261" y="293.906959392" y_displacement_sum="-6.09304060765" />
    <node avg_slowdown_ratio="0.0" id="node_05x04" junction="True" old_x="500.0" old_y="400.0" type="right_before_left" weight_num="4.0" weight_sum="0.0" x="489.666074922" x_displacement_sum="-10.3339250782" y="387.599289906" y_displacement_sum="-12.4007100938" />
    <node avg_slowdown_ratio="0.0" id="node_05x05" junction="True" old_x="500.0" old_y="500.0" type="right_before_left" weight_num="4.0" weight_sum="0.0" x="481.883592305" x_displacement_sum="-18.1164076947" y="481.883592305" y_displacement_sum="-18.1164076947" />
    <node avg_slowdown_ratio="0.0" id="node_05x06" junction="True" old_x="500.0" old_y="600.0" type="right_before_left" weight_num="4.0" weight_sum="0.0" x="472.935643494" x_displacement_sum="-27.0643565059" y="578.348514795" y_displacement_sum="-21.6514852047" />
    <node avg_slowdown_ratio="0.0" id="node_05x07" junction="True" old_x="500.0" old_y="700.0" type="right_before_left" weight_num="4.0" weight_sum="0.0" x="463.691782447" x_displacement_sum="-36.308217553" y="678.215069468" y_displacement_sum="-21.7849305318" />
    <node avg_slowdown_ratio="0.0" id="node_05x08" junction="True" old_x="500.0" old_y="800.0" type="right_before_left" weight_num="4.0" weight_sum="0.0" x="455.367682588" x_displacement_sum="-44.632317412" y="782.147073035" y_displacement_sum="-17.8529269648" />
    <node avg_slowdown_ratio="0.0" id="node_05x09" junction="True" old_x="500.0" old_y="900.0" type="right_before_left" weight_num="4.0" weight_sum="0.0" x="449.452222324" x_displacement_sum="-50.5477776763" y="889.890444465" y_displacement_sum="-10.1095555353" />
    <node avg_slowdown_ratio="0.0" id="node_05x10" junction="True" old_x="500.0" old_y="1000.0" type="right_before_left" weight_num="4.0" weight_sum="0.0" x="447.293207883" x_displacement_sum="-52.7067921174" y="1000.0" y_displacement_sum="0.0" />
    <node avg_slowdown_ratio="0.0" id="node_05x11" junction="True" old_x="500.0" old_y="1100.0" type="right_before_left" weight_num="4.0" weight_sum="0.0" x="449.452222324" x_displacement_sum="-50.5477776763" y="1110.10955554" y_displacement_sum="10.1095555353" />
    <node avg_slowdown_ratio="0.0" id="node_05x12" junction="True" old_x="500.0" old_y="1200.0" type="right_before_left" weight_num="4.0" weight_sum="0.0" x="455.367682588" x_displacement_sum="-44.632317412" y="1217.85292696" y_displacement_sum="17.8529269648" />
    <node avg_slowdown_ratio="0.0" id="node_05x13" junction="True" old_x="500.0" old_y="1300.0" type="right_before_left" weight_num="4.0" weight_sum="0.0" x="463.691782447" x_displacement_sum="-36.308217553" y="1321.78493053" y_displacement_sum="21.7849305318" />
    <node avg_slowdown_ratio="0.0" id="node_05x14" junction="True" old_x="500.0" old_y="1400.0" type="right_before_left" weight_num="4.0" weight_sum="0.0" x="472.935643494" x_displacement_sum="-27.0643565059" y="1421.6514852" y_displacement_sum="21.6514852047" />
    <node avg_slowdown_ratio="0.0" id="node_05x15" junction="True" old_x="500.0" old_y="1500.0" type="right_before_left" weight_num="4.0" weight_sum="0.0" x="481.883592305" x_displacement_sum="-18.1164076947" y="1518.11640769" y_displacement_sum="18.1164076947" />
    <node avg_slowdown_ratio="0.0" id="node_05x16" junction="True" old_x="500.0" old_y="1600.0" type="right_before_left" weight_num="4.0" weight_sum="0.0" x="489.666074922" x_displacement_sum="-10.3339250782" y="1612.40071009" y_displacement_sum="12.4007100938" />
    <node avg_slowdown_ratio="0.0" id="node_05x17" junction="True" old_x="500.0" old_y="1700.0" type="right_before_left" weight_num="4.0" weight_sum="0.0" x="495.647828137" x_displacement_sum="-4.35217186261" y="1706.09304061" y_displacement_sum="6.09304060765" />
    <node avg_slowdown_ratio="0.0" id="node_05x18" junction="True" old_x="500.0" old_y="1800.0" type="right_before_left" weight_num="4.0" weight_sum="0.0" x="499.256389782" x_displacement_sum="-0.743610217865" y="1801.18977635" y_displacement_sum="1.18977634858" />
    <node avg_slowdown_ratio="0.0" id="node_05x19" junction="True" old_x="500.0" old_y="1900.0" type="right_before_left" weight_num="4.0" weight_sum="0.0" x="500.0" y="1900.0" />
    <node avg_slowdown_ratio="0.0" id="node_05x20" junction="True" old_x="500.0" old_y="2000.0" type="right_before_left" weight_num="3.0" weight_sum="0.0" x="500.0" y="2000.0" />
    <node avg_slowdown_ratio="0.0" id="node_06x00" junction="True" old_x="600.0" old_y="0.0" type="right_before_left" weight_num="3.0" weight_sum="0.0" x="600.0" y="0.0" />
    <node avg_slowdown_ratio="0.0" id="node_06x01" junction="True" old_x="600.0" old_y="100.0" type="right_before_left" weight_num="4.0" weight_sum="0.0" x="599.959078072" x_displacement_sum="-0.0409219281491" y="99.9079256617" y_displacement_sum="-0.0920743383355" />
    <node avg_slowdown_ratio="0.0" id="node_06x02" junction="True" old_x="600.0" old_y="200.0" type="right_before_left" weight_num="4.0" weight_sum="0.0" x="597.978648863" x_displacement_sum="-2.02135113744" y="195.957297725" y_displacement_sum="-4.04270227488" />
    <node avg_slowdown_ratio="0.0" id="node_06x03" junction="True" old_x="600.0" old_y="300.0" type="right_before_left" weight_num="4.0" weight_sum="0.0" x="593.465656502" x_displacement_sum="-6.53434349786" y="288.564898879" y_displacement_sum="-11.4351011213" />
    <node avg_slowdown_ratio="0.0" id="node_06x04" junction="True" old_x="600.0" old_y="400.0" type="right_before_left" weight_num="4.0" weight_sum="0.0" x="586.819470019" x_displacement_sum="-13.1805299813" y="380.229205028" y_displacement_sum="-19.770794972" />