<?xml version="1.0" encoding="UTF-8"?>

<!-- generated on 12/01/16 15:33:10 by SUMO netconvert Version 0.27.1
<?xml version="1.0" encoding="UTF-8"?>

<configuration xmlns:xsi="http://www.w3.org/2001/XMLSchema-instance" xsi:noNamespaceSchemaLocation="http://sumo.dlr.de/xsd/netconvertConfiguration.xsd">

    <input>
        <node-files value="C:\Users\zs633\Capstone\4_gravity_new\test_random\7_displaced\gravity.nod.xml"/>
        <edge-files value="C:\Users\zs633\Capstone\4_gravity_new\test_random\7_displaced\gravity.edg.xml"/>
        <connection-files value="C:\Users\zs633\Capstone\4_gravity_new\test_random\4_plain\test.con.xml"/>
        <tllogic-files value="C:\Users\zs633\Capstone\4_gravity_new\test_random\4_plain\test.tll.xml"/>
    </input>

    <output>
        <output-file value="C:\Users\zs633\Capstone\4_gravity_new\test_random\9_output_net\gravity.net.xml"/>
    </output>

    <processing>
        <ignore-errors value="true"/>
        <ignore-errors.edge-type value="true"/>
    </processing>

    <report>
        <verbose value="true"/>
        <xml-validation value="never"/>
        <no-warnings value="true"/>
    </report>

</configuration>
-->

<net version="0.27" xmlns:xsi="http://www.w3.org/2001/XMLSchema-instance" xsi:noNamespaceSchemaLocation="http://sumo.dlr.de/xsd/net_file.xsd">

    <location netOffset="24624.13,25305.67" convBoundary="0.00,0.00,51543.43,52244.70" origBoundary="-24624.13,-25305.67,26919.30,26939.03" projParameter="!"/>

    <edge id=":node_00x00_0" function="internal">
        <lane id=":node_00x00_0_0" index="0" disallow="tram rail_urban rail rail_electric ship" speed="13.89" length="0.58" shape="11277.26,11826.98 11277.12,11827.08 11277.03,11827.16 11276.95,11827.25 11276.85,11827.39"/>
    </edge>
    <edge id=":node_00x00_1" function="internal">
        <lane id=":node_00x00_1_0" index="0" disallow="tram rail_urban rail rail_electric ship" speed="13.89" length="1.77" shape="11274.12,11825.54 11274.42,11825.11 11274.65,11824.83 11274.93,11824.59 11275.35,11824.28"/>
    </edge>
    <edge id=":node_00x01_0" function="internal">
        <lane id=":node_00x01_0_0" index="0" disallow="tram rail_urban rail rail_electric ship" speed="13.89" length="5.52" shape="8459.34,15990.49 8453.83,15990.21"/>
    </edge>
    <edge id=":node_00x01_1" function="internal">
        <lane id=":node_00x01_1_0" index="0" disallow="tram rail_urban rail rail_electric ship" speed="13.89" length="21.70" shape="8459.34,15990.49 8452.40,15993.03 8448.97,15992.58 8449.08,15989.13 8452.71,15982.68"/>
    </edge>
    <edge id=":node_00x01_2" function="internal">
        <lane id=":node_00x01_2_0" index="0" disallow="tram rail_urban rail rail_electric ship" speed="13.89" length="8.23" shape="8455.44,15984.53 8454.06,15986.98 8454.02,15988.29 8455.32,15988.46 8457.95,15987.49"/>
    </edge>
    <edge id=":node_00x01_3" function="internal">
        <lane id=":node_00x01_3_0" index="0" disallow="tram rail_urban rail rail_electric ship" speed="13.89" length="6.09" shape="8455.44,15984.53 8454.79,15986.17 8454.83,15987.54 8454.76,15988.83 8453.83,15990.21"/>
    </edge>
    <edge id=":node_00x01_4" function="internal">
        <lane id=":node_00x01_4_0" index="0" disallow="tram rail_urban rail rail_electric ship" speed="13.89" length="5.42" shape="8451.60,15987.78 8452.38,15986.54 8452.32,15985.38 8452.19,15984.14 8452.71,15982.68"/>
    </edge>
    <edge id=":node_00x01_5" function="internal">
        <lane id=":node_00x01_5_0" index="0" disallow="tram rail_urban rail rail_electric ship" speed="13.89" length="6.66" shape="8451.60,15987.78 8453.17,15987.01 8454.57,15987.33 8456.07,15987.80 8457.95,15987.49"/>
    </edge>
    <edge id=":node_00x02_0" function="internal">
        <lane id=":node_00x02_0_0" index="0" disallow="tram rail_urban rail rail_electric ship" speed="13.89" length="5.65" shape="6708.37,17599.87 6702.79,17598.99"/>
    </edge>
    <edge id=":node_00x02_1" function="internal">
        <lane id=":node_00x02_1_0" index="0" disallow="tram rail_urban rail rail_electric ship" speed="13.89" length="28.06" shape="6708.37,17599.87 6698.83,17602.68 6694.77,17602.16 6696.19,17598.32 6703.07,17591.16"/>
    </edge>
    <edge id=":node_00x02_2" function="internal">
        <lane id=":node_00x02_2_0" index="0" disallow="tram rail_urban rail rail_electric ship" speed="13.89" length="10.25" shape="6705.30,17593.59 6702.79,17596.21 6702.27,17597.61 6703.76,17597.80 6707.24,17596.77"/>
    </edge>
    <edge id=":node_00x02_3" function="internal">
        <lane id=":node_00x02_3_0" index="0" disallow="tram rail_urban rail rail_electric ship" speed="13.89" length="6.17" shape="6705.30,17593.59 6704.34,17595.06 6704.17,17596.45 6703.93,17597.76 6702.79,17598.99"/>
    </edge>
    <edge id=":node_00x02_4" function="internal">
        <lane id=":node_00x02_4_0" index="0" disallow="tram rail_urban rail rail_electric ship" speed="13.89" length="5.67" shape="6701.03,17596.19 6702.04,17595.05 6702.16,17593.82 6702.23,17592.52 6703.07,17591.16"/>
    </edge>
    <edge id=":node_00x02_5" function="internal">
        <lane id=":node_00x02_5_0" index="0" disallow="tram rail_urban rail rail_electric ship" speed="13.89" length="6.52" shape="6701.03,17596.19 6702.70,17595.73 6704.02,17596.26 6705.40,17596.90 6707.24,17596.77"/>
    </edge>
    <edge id=":node_00x03_0" function="internal">
        <lane id=":node_00x03_0_0" index="0" disallow="tram rail_urban rail rail_electric ship" speed="13.89" length="11.39" shape="5187.66,18560.45 5178.79,18553.30"/>
    </edge>
    <edge id=":node_00x03_1" function="internal">
        <lane id=":node_00x03_1_0" index="0" disallow="tram rail_urban rail rail_electric ship" speed="13.89" length="38.45" shape="5187.66,18560.45 5174.08,18563.81 5168.86,18563.40 5172.00,18559.20 5183.49,18551.23"/>
    </edge>
    <edge id=":node_00x03_2" function="internal">
        <lane id=":node_00x03_2_0" index="0" disallow="tram rail_urban rail rail_electric ship" speed="13.89" length="13.60" shape="5185.25,18554.02 5181.18,18556.84 5180.07,18558.33 5181.92,18558.48 5186.72,18557.29"/>
    </edge>
    <edge id=":node_00x03_3" function="internal">
        <lane id=":node_00x03_3_0" index="0" disallow="tram rail_urban rail rail_electric ship" speed="13.89" length="6.49" shape="5185.25,18554.02 5178.79,18553.30"/>
    </edge>
    <edge id=":node_00x03_4" function="internal">
        <lane id=":node_00x03_4_0" index="0" disallow="tram rail_urban rail rail_electric ship" speed="13.89" length="7.45" shape="5176.51,18550.91 5178.25,18550.21 5179.84,18550.86 5181.51,18551.63 5183.49,18551.23"/>
    </edge>
    <edge id=":node_00x03_5" function="internal">
        <lane id=":node_00x03_5_0" index="0" disallow="tram rail_urban rail rail_electric ship" speed="13.89" length="13.09" shape="5176.51,18550.91 5178.96,18550.65 5181.18,18553.34 5183.61,18556.40 5186.72,18557.29"/>
    </edge>
    <edge id=":node_00x04_0" function="internal">
        <lane id=":node_00x04_0_0" index="0" disallow="tram rail_urban rail rail_electric ship" speed="13.89" length="6.42" shape="3877.46,19807.58 3871.42,19805.38"/>
    </edge>
    <edge id=":node_00x04_1" function="internal">
        <lane id=":node_00x04_1_0" index="0" disallow="tram rail_urban rail rail_electric ship" speed="13.89" length="24.52" shape="3877.46,19807.58 3869.15,19809.51 3865.51,19808.68 3866.55,19805.10 3872.27,19798.77"/>
    </edge>
    <edge id=":node_00x04_2" function="internal">
        <lane id=":node_00x04_2_0" index="0" disallow="tram rail_urban rail rail_electric ship" speed="13.89" length="9.12" shape="3874.55,19801.15 3872.43,19803.51 3872.04,19804.84 3873.39,19805.15 3876.48,19804.43"/>
    </edge>
    <edge id=":node_00x04_3" function="internal">
        <lane id=":node_00x04_3_0" index="0" disallow="tram rail_urban rail rail_electric ship" speed="13.89" length="5.30" shape="3874.55,19801.15 3873.55,19802.35 3873.04,19803.33 3872.51,19804.28 3871.42,19805.38"/>
    </edge>
    <edge id=":node_00x04_4" function="internal">
        <lane id=":node_00x04_4_0" index="0" disallow="tram rail_urban rail rail_electric ship" speed="13.89" length="5.02" shape="3869.36,19802.81 3870.38,19801.76 3870.87,19800.85 3871.33,19799.91 3872.27,19798.77"/>
    </edge>
    <edge id=":node_00x04_5" function="internal">
        <lane id=":node_00x04_5_0" index="0" disallow="tram rail_urban rail rail_electric ship" speed="13.89" length="7.83" shape="3869.36,19802.81 3871.18,19802.25 3872.68,19803.17 3874.30,19804.31 3876.48,19804.43"/>
    </edge>
    <edge id=":node_00x05_0" function="internal">
        <lane id=":node_00x05_0_0" index="0" disallow="tram rail_urban rail rail_electric ship" speed="13.89" length="16.58" shape="2708.26,20746.72 2701.84,20748.27 2697.09,20749.63 2694.01,20750.82 2692.60,20751.82"/>
    </edge>
    <edge id=":node_00x05_1" function="internal">
        <lane id=":node_00x05_1_0" index="0" disallow="tram rail_urban rail rail_electric ship" speed="13.89" length="24.88" shape="2708.26,20746.72 2699.68,20748.02 2696.09,20746.91 2697.47,20743.41 2703.83,20737.51"/>
    </edge>
    <edge id=":node_00x05_2" function="internal">
        <lane id=":node_00x05_2_0" index="0" disallow="tram rail_urban rail rail_electric ship" speed="13.89" length="9.23" shape="2705.89,20740.08 2703.53,20742.27 2703.02,20743.57 2704.36,20743.98 2707.54,20743.50"/>
    </edge>
    <edge id=":node_00x05_3" function="internal">
        <lane id=":node_00x05_3_0" index="0" disallow="tram rail_urban rail rail_electric ship" speed="13.89" length="17.73" shape="2705.89,20740.08 2692.60,20751.82"/>
    </edge>
    <edge id=":node_00x05_4" function="internal">
        <lane id=":node_00x05_4_0" index="0" disallow="tram rail_urban rail rail_electric ship" speed="13.89" length="18.88" shape="2689.81,20750.06 2692.58,20746.76 2696.36,20743.37 2700.37,20740.20 2703.83,20737.51"/>
    </edge>
    <edge id=":node_00x05_5" function="internal">
        <lane id=":node_00x05_5_0" index="0" disallow="tram rail_urban rail rail_electric ship" speed="13.89" length="19.11" shape="2689.81,20750.06 2691.62,20748.53 2695.18,20746.93 2700.49,20745.25 2707.54,20743.50"/>
    </edge>
    <edge id=":node_00x06_0" function="internal">
        <lane id=":node_00x06_0_0" index="0" disallow="tram rail_urban rail rail_electric ship" speed="13.89" length="5.82" shape="1948.03,21946.61 1942.60,21944.51"/>
    </edge>
    <edge id=":node_00x06_1" function="internal">
        <lane id=":node_00x06_1_0" index="0" disallow="tram rail_urban rail rail_electric ship" speed="13.89" length="16.07" shape="1948.03,21946.61 1942.95,21947.00 1940.30,21945.73 1940.07,21942.80 1942.27,21938.21"/>
    </edge>
    <edge id=":node_00x06_2" function="internal">
        <lane id=":node_00x06_2_0" index="0" disallow="tram rail_urban rail rail_electric ship" speed="13.89" length="6.51" shape="1945.06,21939.96 1944.17,21941.83 1944.26,21943.01 1945.34,21943.53 1947.40,21943.37"/>
    </edge>
    <edge id=":node_00x06_3" function="internal">
        <lane id=":node_00x06_3_0" index="0" disallow="tram rail_urban rail rail_electric ship" speed="13.89" length="5.17" shape="1945.06,21939.96 1942.60,21944.51"/>
    </edge>
    <edge id=":node_00x06_4" function="internal">
        <lane id=":node_00x06_4_0" index="0" disallow="tram rail_urban rail rail_electric ship" speed="13.89" length="4.90" shape="1939.97,21942.52 1940.77,21941.31 1941.18,21940.41 1941.57,21939.48 1942.27,21938.21"/>
    </edge>
    <edge id=":node_00x06_5" function="internal">
        <lane id=":node_00x06_5_0" index="0" disallow="tram rail_urban rail rail_electric ship" speed="13.89" length="8.12" shape="1939.97,21942.52 1941.56,21941.49 1943.15,21942.09 1945.00,21943.12 1947.40,21943.37"/>
    </edge>
    <edge id=":node_00x07_0" function="internal">
        <lane id=":node_00x07_0_0" index="0" disallow="tram rail_urban rail rail_electric ship" speed="13.89" length="10.74" shape="1228.20,22900.59 1224.26,22901.40 1221.28,22902.27 1219.28,22903.18 1218.25,22904.15"/>
    </edge>
    <edge id=":node_00x07_1" function="internal">
        <lane id=":node_00x07_1_0" index="0" disallow="tram rail_urban rail rail_electric ship" speed="13.89" length="17.09" shape="1228.20,22900.59 1222.70,22900.96 1219.98,22899.64 1220.03,22896.61 1222.86,22891.87"/>
    </edge>
    <edge id=":node_00x07_2" function="internal">
        <lane id=":node_00x07_2_0" index="0" disallow="tram rail_urban rail rail_electric ship" speed="13.89" length="6.81" shape="1225.49,22893.86 1224.36,22895.75 1224.34,22896.96 1225.43,22897.49 1227.62,22897.34"/>
    </edge>
    <edge id=":node_00x07_3" function="internal">
        <lane id=":node_00x07_3_0" index="0" disallow="tram rail_urban rail rail_electric ship" speed="13.89" length="12.58" shape="1225.49,22893.86 1218.25,22904.15"/>
    </edge>
    <edge id=":node_00x07_4" function="internal">
        <lane id=":node_00x07_4_0" index="0" disallow="tram rail_urban rail rail_electric ship" speed="13.89" length="13.07" shape="1215.36,22902.56 1217.13,22899.60 1218.88,22897.07 1220.76,22894.61 1222.86,22891.87"/>
    </edge>
    <edge id=":node_00x07_5" function="internal">
        <lane id=":node_00x07_5_0" index="0" disallow="tram rail_urban rail rail_electric ship" speed="13.89" length="13.63" shape="1215.36,22902.56 1216.82,22900.97 1219.35,22899.57 1222.95,22898.36 1227.62,22897.34"/>
    </edge>
    <edge id=":node_00x08_0" function="internal">
        <lane id=":node_00x08_0_0" index="0" disallow="tram rail_urban rail rail_electric ship" speed="13.89" length="8.46" shape="654.84,23938.55 651.85,23939.04 649.61,23939.73 648.10,23940.63 647.34,23941.73"/>
    </edge>
    <edge id=":node_00x08_1" function="internal">
        <lane id=":node_00x08_1_0" index="0" disallow="tram rail_urban rail rail_electric ship" speed="13.89" length="14.52" shape="654.84,23938.55 650.38,23938.50 647.96,23937.09 647.57,23934.32 649.21,23930.18"/>
    </edge>
    <edge id=":node_00x08_2" function="internal">
        <lane id=":node_00x08_2_0" index="0" disallow="tram rail_urban rail rail_electric ship" speed="13.89" length="6.07" shape="652.10,23931.77 651.42,23933.50 651.58,23934.66 652.59,23935.25 654.46,23935.27"/>
    </edge>
    <edge id=":node_00x08_3" function="internal">
        <lane id=":node_00x08_3_0" index="0" disallow="tram rail_urban rail rail_electric ship" speed="13.89" length="11.04" shape="652.10,23931.77 647.34,23941.73"/>
    </edge>
    <edge id=":node_00x08_4" function="internal">
        <lane id=":node_00x08_4_0" index="0" disallow="tram rail_urban rail rail_electric ship" speed="13.89" length="11.68" shape="644.21,23940.70 645.31,23937.66 646.39,23935.30 647.63,23933.00 649.21,23930.18"/>
    </edge>
    <edge id=":node_00x08_5" function="internal">
        <lane id=":node_00x08_5_0" index="0" disallow="tram rail_urban rail rail_electric ship" speed="13.89" length="12.18" shape="644.21,23940.70 645.39,23938.71 647.49,23937.14 650.51,23935.99 654.46,23935.27"/>
    </edge>
    <edge id=":node_00x09_0" function="internal">
        <lane id=":node_00x09_0_0" index="0" disallow="tram rail_urban rail rail_electric ship" speed="13.89" length="7.31" shape="256.45,25147.72 254.00,25148.17 252.14,25148.85 250.89,25149.75 250.23,25150.86"/>
    </edge>
    <edge id=":node_00x09_1" function="internal">
        <lane id=":node_00x09_1_0" index="0" disallow="tram rail_urban rail rail_electric ship" speed="13.89" length="12.98" shape="256.45,25147.72 252.62,25147.67 250.29,25146.39 249.48,25143.86 250.17,25140.09"/>
    </edge>
    <edge id=":node_00x09_2" function="internal">
        <lane id=":node_00x09_2_0" index="0" disallow="tram rail_urban rail rail_electric ship" speed="13.89" length="5.66" shape="253.30,25141.12 253.00,25142.76 253.36,25143.86 254.37,25144.42 256.04,25144.44"/>
    </edge>
    <edge id=":node_00x09_3" function="internal">
        <lane id=":node_00x09_3_0" index="0" disallow="tram rail_urban rail rail_electric ship" speed="13.89" length="10.22" shape="253.30,25141.12 250.23,25150.86"/>
    </edge>
    <edge id=":node_00x09_4" function="internal">
        <lane id=":node_00x09_4_0" index="0" disallow="tram rail_urban rail rail_electric ship" speed="13.89" length="10.33" shape="247.06,25149.94 250.17,25140.09"/>
    </edge>
    <edge id=":node_00x09_5" function="internal">
        <lane id=":node_00x09_5_0" index="0" disallow="tram rail_urban rail rail_electric ship" speed="13.89" length="11.13" shape="247.06,25149.94 248.12,25147.90 249.97,25146.30 252.61,25145.15 256.04,25144.44"/>
    </edge>
    <edge id=":node_00x10_0" function="internal">
        <lane id=":node_00x10_0_0" index="0" disallow="tram rail_urban rail rail_electric ship" speed="13.89" length="6.17" shape="32.30,25919.93 30.34,25920.19 28.93,25920.81 28.07,25921.78 27.76,25923.11"/>
    </edge>
    <edge id=":node_00x10_1" function="internal">
        <lane id=":node_00x10_1_0" index="0" disallow="tram rail_urban rail rail_electric ship" speed="13.89" length="12.15" shape="32.30,25919.93 28.81,25919.58 26.65,25918.19 25.82,25915.76 26.31,25912.29"/>
    </edge>
    <edge id=":node_00x10_2" function="internal">
        <lane id=":node_00x10_2_0" index="0" disallow="tram rail_urban rail rail_electric ship" speed="13.89" length="5.44" shape="29.48,25913.21 29.26,25914.76 29.63,25915.85 30.60,25916.47 32.17,25916.63"/>
    </edge>
    <edge id=":node_00x10_3" function="internal">
        <lane id=":node_00x10_3_0" index="0" disallow="tram rail_urban rail rail_electric ship" speed="13.89" length="10.10" shape="29.48,25913.21 28.64,25916.08 28.15,25918.08 27.89,25920.13 27.76,25923.11"/>
    </edge>
    <edge id=":node_00x10_4" function="internal">
        <lane id=":node_00x10_4_0" index="0" disallow="tram rail_urban rail rail_electric ship" speed="13.89" length="10.94" shape="24.46,25923.03 24.61,25919.91 24.91,25917.58 25.45,25915.29 26.31,25912.29"/>
    </edge>
    <edge id=":node_00x10_5" function="internal">
        <lane id=":node_00x10_5_0" index="0" disallow="tram rail_urban rail rail_electric ship" speed="13.89" length="11.23" shape="24.46,25923.03 25.00,25920.34 26.46,25918.38 28.85,25917.15 32.17,25916.63"/>
    </edge>
    <edge id=":node_00x11_0" function="internal">
        <lane id=":node_00x11_0_0" index="0" disallow="tram rail_urban rail rail_electric ship" speed="13.89" length="10.51" shape="-0.68,26992.69 -1.54,26982.21"/>
    </edge>
    <edge id=":node_00x11_1" function="internal">
        <lane id=":node_00x11_1_0" index="0" disallow="tram rail_urban rail rail_electric ship" speed="13.89" length="11.65" shape="-0.68,26992.69 -0.77,26989.38 0.28,26987.09 2.46,26985.84 5.77,26985.62"/>
    </edge>
    <edge id=":node_00x11_2" function="internal">
        <lane id=":node_00x11_2_0" index="0" disallow="tram rail_urban rail rail_electric ship" speed="13.89" length="5.32" shape="5.52,26988.91 4.01,26989.01 3.01,26989.58 2.53,26990.62 2.57,26992.14"/>
    </edge>
    <edge id=":node_00x11_3" function="internal">
        <lane id=":node_00x11_3_0" index="0" disallow="tram rail_urban rail rail_electric ship" speed="13.89" length="10.95" shape="5.52,26988.91 2.37,26988.29 0.15,26986.96 -1.15,26984.94 -1.54,26982.21"/>
    </edge>
    <edge id=":node_00x11_4" function="internal">
        <lane id=":node_00x11_4_0" index="0" disallow="tram rail_urban rail rail_electric ship" speed="13.89" length="5.84" shape="1.76,26982.29 1.98,26983.63 2.73,26984.63 3.99,26985.30 5.77,26985.62"/>
    </edge>
    <edge id=":node_00x11_5" function="internal">
        <lane id=":node_00x11_5_0" index="0" disallow="tram rail_urban rail rail_electric ship" speed="13.89" length="9.91" shape="1.76,26982.29 1.72,26985.23 1.81,26987.24 2.08,26989.24 2.57,26992.14"/>
    </edge>
    <edge id=":node_00x12_0" function="internal">
        <lane id=":node_00x12_0_0" index="0" disallow="tram rail_urban rail rail_electric ship" speed="13.89" length="10.62" shape="224.79,28317.11 222.09,28306.84"/>
    </edge>
    <edge id=":node_00x12_1" function="internal">
        <lane id=":node_00x12_1_0" index="0" disallow="tram rail_urban rail rail_electric ship" speed="13.89" length="12.66" shape="224.79,28317.11 224.15,28313.46 224.95,28310.96 227.20,28309.62 230.90,28309.42"/>
    </edge>
    <edge id=":node_00x12_2" function="internal">
        <lane id=":node_00x12_2_0" index="0" disallow="tram rail_urban rail rail_electric ship" speed="13.89" length="5.57" shape="230.62,28312.71 228.99,28312.80 228.00,28313.39 227.65,28314.49 227.93,28316.10"/>
    </edge>
    <edge id=":node_00x12_3" function="internal">
        <lane id=":node_00x12_3_0" index="0" disallow="tram rail_urban rail rail_electric ship" speed="13.89" length="11.20" shape="230.62,28312.71 227.22,28312.10 224.67,28310.91 222.96,28309.16 222.09,28306.84"/>
    </edge>
    <edge id=":node_00x12_4" function="internal">
        <lane id=":node_00x12_4_0" index="0" disallow="tram rail_urban rail rail_electric ship" speed="13.89" length="6.84" shape="225.35,28306.28 225.87,28307.49 226.97,28308.42 228.65,28309.06 230.90,28309.42"/>
    </edge>
    <edge id=":node_00x12_5" function="internal">
        <lane id=":node_00x12_5_0" index="0" disallow="tram rail_urban rail rail_electric ship" speed="13.89" length="10.16" shape="225.35,28306.28 225.89,28309.23 226.38,28311.26 226.99,28313.25 227.93,28316.10"/>
    </edge>
    <edge id=":node_00x13_0" function="internal">
        <lane id=":node_00x13_0_0" index="0" disallow="tram rail_urban rail rail_electric ship" speed="13.89" length="12.44" shape="591.69,29443.95 585.80,29432.98"/>
    </edge>
    <edge id=":node_00x13_1" function="internal">
        <lane id=":node_00x13_1_0" index="0" disallow="tram rail_urban rail rail_electric ship" speed="13.89" length="15.50" shape="591.69,29443.95 589.57,29439.57 589.78,29436.69 592.32,29435.30 597.17,29435.40"/>
    </edge>
    <edge id=":node_00x13_2" function="internal">
        <lane id=":node_00x13_2_0" index="0" disallow="tram rail_urban rail rail_electric ship" speed="13.89" length="6.35" shape="596.72,29438.66 594.73,29438.62 593.69,29439.19 593.60,29440.37 594.47,29442.17"/>
    </edge>
    <edge id=":node_00x13_3" function="internal">
        <lane id=":node_00x13_3_0" index="0" disallow="tram rail_urban rail rail_electric ship" speed="13.89" length="12.86" shape="596.72,29438.66 592.47,29437.81 589.23,29436.58 587.01,29434.97 585.80,29432.98"/>
    </edge>
    <edge id=":node_00x13_4" function="internal">
        <lane id=":node_00x13_4_0" index="0" disallow="tram rail_urban rail rail_electric ship" speed="13.89" length="9.22" shape="588.94,29431.97 589.74,29433.08 591.38,29434.02 593.86,29434.79 597.17,29435.40"/>
    </edge>
    <edge id=":node_00x13_5" function="internal">
        <lane id=":node_00x13_5_0" index="0" disallow="tram rail_urban rail rail_electric ship" speed="13.89" length="11.65" shape="588.94,29431.97 590.07,29434.98 591.27,29437.27 592.68,29439.47 594.47,29442.17"/>
    </edge>
    <edge id=":node_00x14_0" function="internal">
        <lane id=":node_00x14_0_0" index="0" disallow="tram rail_urban rail rail_electric ship" speed="13.89" length="12.31" shape="1319.66,30580.80 1312.90,30570.51"/>
    </edge>
    <edge id=":node_00x14_1" function="internal">
        <lane id=":node_00x14_1_0" index="0" disallow="tram rail_urban rail rail_electric ship" speed="13.89" length="16.61" shape="1319.66,30580.80 1317.24,30576.06 1317.39,30573.08 1320.11,30571.84 1325.40,30572.36"/>
    </edge>
    <edge id=":node_00x14_2" function="internal">
        <lane id=":node_00x14_2_0" index="0" disallow="tram rail_urban rail rail_electric ship" speed="13.89" length="6.67" shape="1324.72,30575.59 1322.59,30575.38 1321.50,30575.88 1321.44,30577.08 1322.41,30578.98"/>
    </edge>
    <edge id=":node_00x14_3" function="internal">
        <lane id=":node_00x14_3_0" index="0" disallow="tram rail_urban rail rail_electric ship" speed="13.89" length="13.08" shape="1324.72,30575.59 1320.27,30574.49 1316.82,30573.27 1314.36,30571.94 1312.90,30570.51"/>
    </edge>
    <edge id=":node_00x14_4" function="internal">
        <lane id=":node_00x14_4_0" index="0" disallow="tram rail_urban rail rail_electric ship" speed="13.89" length="10.50" shape="1315.68,30568.73 1316.73,30569.64 1318.70,30570.55 1321.59,30571.46 1325.40,30572.36"/>
    </edge>
    <edge id=":node_00x14_5" function="internal">
        <lane id=":node_00x14_5_0" index="0" disallow="tram rail_urban rail rail_electric ship" speed="13.89" length="12.26" shape="1315.68,30568.73 1322.41,30578.98"/>
    </edge>
    <edge id=":node_00x15_0" function="internal">
        <lane id=":node_00x15_0_0" index="0" disallow="tram rail_urban rail rail_electric ship" speed="13.89" length="5.98" shape="2161.33,31848.78 2159.87,31847.86 2158.56,31847.63 2157.34,31847.31 2156.15,31846.16"/>
    </edge>
    <edge id=":node_00x15_1" function="internal">
        <lane id=":node_00x15_1_0" index="0" disallow="tram rail_urban rail rail_electric ship" speed="13.89" length="21.54" shape="2161.33,31848.78 2156.51,31843.26 2155.71,31839.92 2158.94,31838.75 2166.21,31839.77"/>
    </edge>
    <edge id=":node_00x15_2" function="internal">
        <lane id=":node_00x15_2_0" index="0" disallow="tram rail_urban rail rail_electric ship" speed="13.89" length="8.18" shape="2165.48,31842.99 2162.72,31842.60 2161.49,31843.04 2161.79,31844.31 2163.63,31846.41"/>
    </edge>
    <edge id=":node_00x15_3" function="internal">
        <lane id=":node_00x15_3_0" index="0" disallow="tram rail_urban rail rail_electric ship" speed="13.89" length="9.86" shape="2165.48,31842.99 2156.15,31846.16"/>
    </edge>
    <edge id=":node_00x15_4" function="internal">
        <lane id=":node_00x15_4_0" index="0" disallow="tram rail_urban rail rail_electric ship" speed="13.89" length="9.84" shape="2158.90,31844.34 2160.45,31845.01 2161.87,31843.05 2163.63,31840.59 2166.21,31839.77"/>
    </edge>
    <edge id=":node_00x15_5" function="internal">
        <lane id=":node_00x15_5_0" index="0" disallow="tram rail_urban rail rail_electric ship" speed="13.89" length="5.34" shape="2158.90,31844.34 2159.98,31845.32 2161.10,31845.51 2162.31,31845.63 2163.63,31846.41"/>
    </edge>
    <edge id=":node_00x16_0" function="internal">
        <lane id=":node_00x16_0_0" index="0" disallow="tram rail_urban rail rail_electric ship" speed="13.89" length="5.76" shape="3300.37,32946.01 3298.87,32945.30 3297.61,32945.24 3296.40,32945.14 3295.02,32944.28"/>
    </edge>
    <edge id=":node_00x16_1" function="internal">
        <lane id=":node_00x16_1_0" index="0" disallow="tram rail_urban rail rail_electric ship" speed="13.89" length="30.43" shape="3300.37,32946.01 3292.06,32939.01 3290.04,32935.16 3294.33,32934.46 3304.92,32936.90"/>
    </edge>
    <edge id=":node_00x16_2" function="internal">
        <lane id=":node_00x16_2_0" index="0" disallow="tram rail_urban rail rail_electric ship" speed="13.89" length="11.01" shape="3304.00,32940.07 3300.16,32939.19 3298.61,32939.44 3299.34,32940.83 3302.35,32943.37"/>
    </edge>
    <edge id=":node_00x16_3" function="internal">
        <lane id=":node_00x16_3_0" index="0" disallow="tram rail_urban rail rail_electric ship" speed="13.89" length="9.91" shape="3304.00,32940.07 3295.02,32944.28"/>
    </edge>
    <edge id=":node_00x16_4" function="internal">
        <lane id=":node_00x16_4_0" index="0" disallow="tram rail_urban rail rail_electric ship" speed="13.89" length="9.10" shape="3297.32,32941.90 3304.92,32936.90"/>
    </edge>
    <edge id=":node_00x16_5" function="internal">
        <lane id=":node_00x16_5_0" index="0" disallow="tram rail_urban rail rail_electric ship" speed="13.89" length="5.39" shape="3297.32,32941.90 3298.60,32942.68 3299.75,32942.73 3300.94,32942.73 3302.35,32943.37"/>
    </edge>
    <edge id=":node_00x17_0" function="internal">
        <lane id=":node_00x17_0_0" index="0" disallow="tram rail_urban rail rail_electric ship" speed="13.89" length="5.02" shape="4691.52,33987.06 4690.50,33985.99 4689.96,33985.10 4689.40,33984.24 4688.32,33983.24"/>
    </edge>
    <edge id=":node_00x17_1" function="internal">
        <lane id=":node_00x17_1_0" index="0" disallow="tram rail_urban rail rail_electric ship" speed="13.89" length="27.49" shape="4691.52,33987.06 4684.56,33980.29 4683.07,33976.54 4687.04,33975.83 4696.47,33978.14"/>
    </edge>
    <edge id=":node_00x17_2" function="internal">
        <lane id=":node_00x17_2_0" index="0" disallow="tram rail_urban rail rail_electric ship" speed="13.89" length="10.06" shape="4695.48,33981.29 4692.03,33980.44 4690.57,33980.70 4691.12,33982.08 4693.67,33984.56"/>
    </edge>
    <edge id=":node_00x17_3" function="internal">
        <lane id=":node_00x17_3_0" index="0" disallow="tram rail_urban rail rail_electric ship" speed="13.89" length="7.42" shape="4695.48,33981.29 4688.32,33983.24"/>
    </edge>
    <edge id=":node_00x17_4" function="internal">
        <lane id=":node_00x17_4_0" index="0" disallow="tram rail_urban rail rail_electric ship" speed="13.89" length="7.24" shape="4690.30,33980.59 4691.94,33980.91 4693.19,33979.74 4694.54,33978.38 4696.47,33978.14"/>
    </edge>
    <edge id=":node_00x17_5" function="internal">
        <lane id=":node_00x17_5_0" index="0" disallow="tram rail_urban rail rail_electric ship" speed="13.89" length="5.23" shape="4690.30,33980.59 4691.42,33981.63 4692.02,33982.52 4692.60,33983.44 4693.67,33984.56"/>
    </edge>
    <edge id=":node_00x18_0" function="internal">
        <lane id=":node_00x18_0_0" index="0" disallow="tram rail_urban rail rail_electric ship" speed="13.89" length="5.13" shape="6173.32,35254.99 6172.07,35254.13 6171.12,35253.68 6170.18,35253.21 6168.97,35252.31"/>
    </edge>
    <edge id=":node_00x18_1" function="internal">