<?xml version="1.0" encoding="UTF-8"?>

<!-- generated on 02/05/17 01:57:18 by SUMO netconvert Version 0.27.1
<?xml version="1.0" encoding="UTF-8"?>

<configuration xmlns:xsi="http://www.w3.org/2001/XMLSchema-instance" xsi:noNamespaceSchemaLocation="http://sumo.dlr.de/xsd/netconvertConfiguration.xsd">

    <input>
        <node-files value="C:\Users\zs633\capstone\9_conical\test_random\7_displaced\linear.nod.xml"/>
        <edge-files value="C:\Users\zs633\capstone\9_conical\test_random\7_displaced\linear.edg.xml"/>
        <connection-files value="C:\Users\zs633\capstone\9_conical\test_random\4_plain\test.con.xml"/>
        <tllogic-files value="C:\Users\zs633\capstone\9_conical\test_random\4_plain\test.tll.xml"/>
    </input>

    <output>
        <output-file value="C:\Users\zs633\capstone\9_conical\test_random\9_output_net\linear.net.xml"/>
    </output>

    <processing>
        <ignore-errors value="true"/>
        <ignore-errors.edge-type value="true"/>
    </processing>

    <report>
        <verbose value="true"/>
        <xml-validation value="never"/>
        <no-warnings value="true"/>
    </report>

</configuration>
-->

<net version="0.27" xmlns:xsi="http://www.w3.org/2001/XMLSchema-instance" xsi:noNamespaceSchemaLocation="http://sumo.dlr.de/xsd/net_file.xsd">

    <location netOffset="5.91,10.43" convBoundary="0.00,0.00,2013.59,2017.90" origBoundary="-5.91,-10.43,2007.68,2007.47" projParameter="!"/>

    <edge id=":node_00x00_0" function="internal">
        <lane id=":node_00x00_0_0" index="0" disallow="tram rail_urban rail rail_electric ship" speed="13.89" length="7.90" shape="4.26,13.68 4.56,11.54 5.48,10.00 7.01,9.09 9.16,8.78"/>
    </edge>
    <edge id=":node_00x00_1" function="internal">
        <lane id=":node_00x00_1_0" index="0" disallow="tram rail_urban rail rail_electric ship" speed="13.89" length="2.58" shape="9.16,12.08 8.46,12.18 7.96,12.48 7.66,12.98 7.56,13.68"/>
    </edge>
    <edge id=":node_00x01_0" function="internal">
        <lane id=":node_00x01_0_0" index="0" disallow="tram rail_urban rail rail_electric ship" speed="13.89" length="9.50" shape="4.26,115.18 4.26,105.68"/>
    </edge>
    <edge id=":node_00x01_1" function="internal">
        <lane id=":node_00x01_1_0" index="0" disallow="tram rail_urban rail rail_electric ship" speed="13.89" length="10.32" shape="4.26,115.18 4.66,112.38 5.86,110.38 7.86,109.18 10.66,108.78"/>
    </edge>
    <edge id=":node_00x01_2" function="internal">
        <lane id=":node_00x01_2_0" index="0" disallow="tram rail_urban rail rail_electric ship" speed="13.89" length="5.00" shape="10.66,112.08 9.30,112.27 8.33,112.85 7.75,113.82 7.56,115.18"/>
    </edge>
    <edge id=":node_00x01_3" function="internal">
        <lane id=":node_00x01_3_0" index="0" disallow="tram rail_urban rail rail_electric ship" speed="13.89" length="10.32" shape="10.66,112.08 7.86,111.68 5.86,110.48 4.66,108.48 4.26,105.68"/>
    </edge>
    <edge id=":node_00x01_4" function="internal">
        <lane id=":node_00x01_4_0" index="0" disallow="tram rail_urban rail rail_electric ship" speed="13.89" length="5.00" shape="7.56,105.68 7.75,107.04 8.33,108.00 9.30,108.59 10.66,108.78"/>
    </edge>
    <edge id=":node_00x01_5" function="internal">
        <lane id=":node_00x01_5_0" index="0" disallow="tram rail_urban rail rail_electric ship" speed="13.89" length="9.50" shape="7.56,105.68 7.56,115.18"/>
    </edge>
    <edge id=":node_00x02_0" function="internal">
        <lane id=":node_00x02_0_0" index="0" disallow="tram rail_urban rail rail_electric ship" speed="13.89" length="9.50" shape="4.26,215.18 4.26,205.68"/>
    </edge>
    <edge id=":node_00x02_1" function="internal">
        <lane id=":node_00x02_1_0" index="0" disallow="tram rail_urban rail rail_electric ship" speed="13.89" length="10.32" shape="4.26,215.18 4.66,212.38 5.86,210.38 7.86,209.18 10.66,208.78"/>
    </edge>
    <edge id=":node_00x02_2" function="internal">
        <lane id=":node_00x02_2_0" index="0" disallow="tram rail_urban rail rail_electric ship" speed="13.89" length="5.00" shape="10.66,212.08 9.30,212.27 8.33,212.85 7.75,213.82 7.56,215.18"/>
    </edge>
    <edge id=":node_00x02_3" function="internal">
        <lane id=":node_00x02_3_0" index="0" disallow="tram rail_urban rail rail_electric ship" speed="13.89" length="10.32" shape="10.66,212.08 7.86,211.68 5.86,210.48 4.66,208.48 4.26,205.68"/>
    </edge>
    <edge id=":node_00x02_4" function="internal">
        <lane id=":node_00x02_4_0" index="0" disallow="tram rail_urban rail rail_electric ship" speed="13.89" length="5.00" shape="7.56,205.68 7.75,207.04 8.33,208.00 9.30,208.59 10.66,208.78"/>
    </edge>
    <edge id=":node_00x02_5" function="internal">
        <lane id=":node_00x02_5_0" index="0" disallow="tram rail_urban rail rail_electric ship" speed="13.89" length="9.50" shape="7.56,205.68 7.56,215.18"/>
    </edge>
    <edge id=":node_00x03_0" function="internal">
        <lane id=":node_00x03_0_0" index="0" disallow="tram rail_urban rail rail_electric ship" speed="13.89" length="9.50" shape="4.26,315.18 4.26,305.68"/>
    </edge>
    <edge id=":node_00x03_1" function="internal">
        <lane id=":node_00x03_1_0" index="0" disallow="tram rail_urban rail rail_electric ship" speed="13.89" length="10.32" shape="4.26,315.18 4.66,312.38 5.86,310.38 7.86,309.18 10.66,308.78"/>
    </edge>
    <edge id=":node_00x03_2" function="internal">
        <lane id=":node_00x03_2_0" index="0" disallow="tram rail_urban rail rail_electric ship" speed="13.89" length="5.00" shape="10.66,312.08 9.30,312.27 8.33,312.85 7.75,313.82 7.56,315.18"/>
    </edge>
    <edge id=":node_00x03_3" function="internal">
        <lane id=":node_00x03_3_0" index="0" disallow="tram rail_urban rail rail_electric ship" speed="13.89" length="10.32" shape="10.66,312.08 7.86,311.68 5.86,310.48 4.66,308.48 4.26,305.68"/>
    </edge>
    <edge id=":node_00x03_4" function="internal">
        <lane id=":node_00x03_4_0" index="0" disallow="tram rail_urban rail rail_electric ship" speed="13.89" length="5.00" shape="7.56,305.68 7.75,307.04 8.33,308.00 9.30,308.59 10.66,308.78"/>
    </edge>
    <edge id=":node_00x03_5" function="internal">
        <lane id=":node_00x03_5_0" index="0" disallow="tram rail_urban rail rail_electric ship" speed="13.89" length="9.50" shape="7.56,305.68 7.56,315.18"/>
    </edge>
    <edge id=":node_00x04_0" function="internal">
        <lane id=":node_00x04_0_0" index="0" disallow="tram rail_urban rail rail_electric ship" speed="13.89" length="5.15" shape="10.79,411.95 9.35,412.18 8.31,412.77 7.68,413.73 7.44,415.05"/>
    </edge>
    <edge id=":node_00x04_1" function="internal">
        <lane id=":node_00x04_1_0" index="0" disallow="tram rail_urban rail rail_electric ship" speed="13.89" length="10.46" shape="10.79,411.95 7.93,411.62 5.89,410.45 4.67,408.44 4.26,405.59"/>
    </edge>
    <edge id=":node_00x04_2" function="internal">
        <lane id=":node_00x04_2_0" index="0" disallow="tram rail_urban rail rail_electric ship" speed="13.89" length="5.03" shape="7.56,405.59 7.75,406.96 8.34,407.93 9.33,408.49 10.70,408.65"/>
    </edge>
    <edge id=":node_00x04_3" function="internal">
        <lane id=":node_00x04_3_0" index="0" disallow="tram rail_urban rail rail_electric ship" speed="13.89" length="9.46" shape="7.56,405.59 7.44,415.05"/>
    </edge>
    <edge id=":node_00x04_4" function="internal">
        <lane id=":node_00x04_4_0" index="0" disallow="tram rail_urban rail rail_electric ship" speed="13.89" length="9.37" shape="4.14,414.96 4.26,405.59"/>
    </edge>
    <edge id=":node_00x04_5" function="internal">
        <lane id=":node_00x04_5_0" index="0" disallow="tram rail_urban rail rail_electric ship" speed="13.89" length="10.27" shape="4.14,414.96 4.61,412.27 5.86,410.31 7.89,409.11 10.70,408.65"/>
    </edge>
    <edge id=":node_00x05_0" function="internal">
        <lane id=":node_00x05_0_0" index="0" disallow="tram rail_urban rail rail_electric ship" speed="13.89" length="9.76" shape="1.72,515.31 1.72,505.55"/>
    </edge>
    <edge id=":node_00x05_1" function="internal">
        <lane id=":node_00x05_1_0" index="0" disallow="tram rail_urban rail rail_electric ship" speed="13.89" length="10.46" shape="1.72,515.31 2.05,512.45 3.22,510.41 5.23,509.19 8.08,508.78"/>
    </edge>
    <edge id=":node_00x05_2" function="internal">
        <lane id=":node_00x05_2_0" index="0" disallow="tram rail_urban rail rail_electric ship" speed="13.89" length="5.03" shape="8.08,512.08 6.71,512.27 5.74,512.86 5.18,513.85 5.02,515.22"/>
    </edge>
    <edge id=":node_00x05_3" function="internal">
        <lane id=":node_00x05_3_0" index="0" disallow="tram rail_urban rail rail_electric ship" speed="13.89" length="10.46" shape="8.08,512.08 5.23,511.67 3.22,510.45 2.05,508.41 1.72,505.55"/>
    </edge>
    <edge id=":node_00x05_4" function="internal">
        <lane id=":node_00x05_4_0" index="0" disallow="tram rail_urban rail rail_electric ship" speed="13.89" length="5.03" shape="5.02,505.64 5.18,507.01 5.74,507.99 6.71,508.58 8.08,508.78"/>
    </edge>
    <edge id=":node_00x05_5" function="internal">
        <lane id=":node_00x05_5_0" index="0" disallow="tram rail_urban rail rail_electric ship" speed="13.89" length="9.58" shape="5.02,505.64 5.02,515.22"/>
    </edge>
    <edge id=":node_00x06_0" function="internal">
        <lane id=":node_00x06_0_0" index="0" disallow="tram rail_urban rail rail_electric ship" speed="13.89" length="4.98" shape="10.59,612.11 9.24,612.29 8.26,612.86 7.67,613.82 7.45,615.17"/>
    </edge>
    <edge id=":node_00x06_1" function="internal">
        <lane id=":node_00x06_1_0" index="0" disallow="tram rail_urban rail rail_electric ship" speed="13.89" length="10.21" shape="10.59,612.11 7.82,611.70 5.82,610.52 4.59,608.56 4.12,605.83"/>
    </edge>
    <edge id=":node_00x06_2" function="internal">
        <lane id=":node_00x06_2_0" index="0" disallow="tram rail_urban rail rail_electric ship" speed="13.89" length="5.01" shape="7.42,605.74 7.65,607.08 8.26,608.03 9.24,608.61 10.61,608.81"/>
    </edge>
    <edge id=":node_00x06_3" function="internal">
        <lane id=":node_00x06_3_0" index="0" disallow="tram rail_urban rail rail_electric ship" speed="13.89" length="9.42" shape="7.42,605.74 7.45,615.17"/>
    </edge>
    <edge id=":node_00x06_4" function="internal">
        <lane id=":node_00x06_4_0" index="0" disallow="tram rail_urban rail rail_electric ship" speed="13.89" length="9.27" shape="4.15,615.10 4.12,605.83"/>
    </edge>
    <edge id=":node_00x06_5" function="internal">
        <lane id=":node_00x06_5_0" index="0" disallow="tram rail_urban rail rail_electric ship" speed="13.89" length="10.25" shape="4.15,615.10 4.60,612.33 5.83,610.36 7.83,609.19 10.61,608.81"/>
    </edge>
    <edge id=":node_00x07_0" function="internal">
        <lane id=":node_00x07_0_0" index="0" disallow="tram rail_urban rail rail_electric ship" speed="13.89" length="5.22" shape="8.86,711.90 7.38,712.15 6.33,712.75 5.68,713.72 5.46,715.05"/>
    </edge>
    <edge id=":node_00x07_1" function="internal">
        <lane id=":node_00x07_1_0" index="0" disallow="tram rail_urban rail rail_electric ship" speed="13.89" length="10.61" shape="8.86,711.90 5.95,711.59 3.88,710.41 2.68,708.37 2.32,705.46"/>
    </edge>
    <edge id=":node_00x07_2" function="internal">
        <lane id=":node_00x07_2_0" index="0" disallow="tram rail_urban rail rail_electric ship" speed="13.89" length="5.07" shape="5.62,705.53 5.79,706.92 6.37,707.89 7.35,708.46 8.74,708.61"/>
    </edge>
    <edge id=":node_00x07_3" function="internal">
        <lane id=":node_00x07_3_0" index="0" disallow="tram rail_urban rail rail_electric ship" speed="13.89" length="9.52" shape="5.62,705.53 5.46,715.05"/>
    </edge>
    <edge id=":node_00x07_4" function="internal">
        <lane id=":node_00x07_4_0" index="0" disallow="tram rail_urban rail rail_electric ship" speed="13.89" length="9.54" shape="2.16,715.00 2.32,705.46"/>
    </edge>
    <edge id=":node_00x07_5" function="internal">
        <lane id=":node_00x07_5_0" index="0" disallow="tram rail_urban rail rail_electric ship" speed="13.89" length="10.36" shape="2.16,715.00 2.60,712.29 3.84,710.32 5.89,709.09 8.74,708.61"/>
    </edge>
    <edge id=":node_00x08_0" function="internal">
        <lane id=":node_00x08_0_0" index="0" disallow="tram rail_urban rail rail_electric ship" speed="13.89" length="5.14" shape="7.44,811.97 6.01,812.19 4.98,812.79 4.36,813.76 4.15,815.10"/>
    </edge>
    <edge id=":node_00x08_1" function="internal">
        <lane id=":node_00x08_1_0" index="0" disallow="tram rail_urban rail rail_electric ship" speed="13.89" length="10.50" shape="7.44,811.97 4.57,811.62 2.53,810.44 1.32,808.41 0.95,805.54"/>
    </edge>
    <edge id=":node_00x08_2" function="internal">
        <lane id=":node_00x08_2_0" index="0" disallow="tram rail_urban rail rail_electric ship" speed="13.89" length="5.04" shape="4.25,805.58 4.43,806.96 5.01,807.94 5.98,808.51 7.36,808.67"/>
    </edge>
    <edge id=":node_00x08_3" function="internal">
        <lane id=":node_00x08_3_0" index="0" disallow="tram rail_urban rail rail_electric ship" speed="13.89" length="9.51" shape="4.25,805.58 4.15,815.10"/>
    </edge>
    <edge id=":node_00x08_4" function="internal">
        <lane id=":node_00x08_4_0" index="0" disallow="tram rail_urban rail rail_electric ship" speed="13.89" length="9.53" shape="0.85,815.07 0.95,805.54"/>
    </edge>
    <edge id=":node_00x08_5" function="internal">
        <lane id=":node_00x08_5_0" index="0" disallow="tram rail_urban rail rail_electric ship" speed="13.89" length="10.34" shape="0.85,815.07 1.27,812.32 2.50,810.34 4.53,809.13 7.36,808.67"/>
    </edge>
    <edge id=":node_00x09_0" function="internal">
        <lane id=":node_00x09_0_0" index="0" disallow="tram rail_urban rail rail_electric ship" speed="13.89" length="9.55" shape="0.09,915.17 0.12,905.62"/>
    </edge>
    <edge id=":node_00x09_1" function="internal">
        <lane id=":node_00x09_1_0" index="0" disallow="tram rail_urban rail rail_electric ship" speed="13.89" length="10.35" shape="0.09,915.17 0.48,912.37 1.69,910.37 3.70,909.16 6.52,908.75"/>
    </edge>
    <edge id=":node_00x09_2" function="internal">
        <lane id=":node_00x09_2_0" index="0" disallow="tram rail_urban rail rail_electric ship" speed="13.89" length="5.04" shape="6.54,912.05 5.16,912.25 4.17,912.84 3.58,913.81 3.39,915.16"/>
    </edge>
    <edge id=":node_00x09_3" function="internal">
        <lane id=":node_00x09_3_0" index="0" disallow="tram rail_urban rail rail_electric ship" speed="13.89" length="10.39" shape="6.54,912.05 3.71,911.66 1.70,910.46 0.50,908.45 0.12,905.62"/>
    </edge>
    <edge id=":node_00x09_4" function="internal">
        <lane id=":node_00x09_4_0" index="0" disallow="tram rail_urban rail rail_electric ship" speed="13.89" length="5.02" shape="3.42,905.65 3.60,907.01 4.18,907.98 5.15,908.56 6.52,908.75"/>
    </edge>
    <edge id=":node_00x09_5" function="internal">
        <lane id=":node_00x09_5_0" index="0" disallow="tram rail_urban rail rail_electric ship" speed="13.89" length="9.52" shape="3.42,905.65 3.39,915.16"/>
    </edge>
    <edge id=":node_00x10_0" function="internal">
        <lane id=":node_00x10_0_0" index="0" disallow="tram rail_urban rail rail_electric ship" speed="13.89" length="5.01" shape="6.65,1012.07 5.29,1012.26 4.31,1012.84 3.72,1013.81 3.52,1015.16"/>
    </edge>
    <edge id=":node_00x10_1" function="internal">
        <lane id=":node_00x10_1_0" index="0" disallow="tram rail_urban rail rail_electric ship" speed="13.89" length="10.33" shape="6.65,1012.07 3.85,1011.67 1.85,1010.48 0.64,1008.48 0.24,1005.68"/>
    </edge>
    <edge id=":node_00x10_2" function="internal">
        <lane id=":node_00x10_2_0" index="0" disallow="tram rail_urban rail rail_electric ship" speed="13.89" length="5.00" shape="3.54,1005.67 3.73,1007.03 4.32,1008.00 5.29,1008.58 6.64,1008.77"/>
    </edge>
    <edge id=":node_00x10_3" function="internal">
        <lane id=":node_00x10_3_0" index="0" disallow="tram rail_urban rail rail_electric ship" speed="13.89" length="9.49" shape="3.54,1005.67 3.52,1015.16"/>
    </edge>
    <edge id=":node_00x10_4" function="internal">
        <lane id=":node_00x10_4_0" index="0" disallow="tram rail_urban rail rail_electric ship" speed="13.89" length="9.47" shape="0.22,1015.15 0.24,1005.68"/>
    </edge>
    <edge id=":node_00x10_5" function="internal">
        <lane id=":node_00x10_5_0" index="0" disallow="tram rail_urban rail rail_electric ship" speed="13.89" length="10.31" shape="0.22,1015.15 0.64,1012.36 1.84,1010.37 3.85,1009.17 6.64,1008.77"/>
    </edge>
    <edge id=":node_00x11_0" function="internal">
        <lane id=":node_00x11_0_0" index="0" disallow="tram rail_urban rail rail_electric ship" speed="13.89" length="9.54" shape="-0.18,1115.19 -0.17,1105.65"/>
    </edge>
    <edge id=":node_00x11_1" function="internal">
        <lane id=":node_00x11_1_0" index="0" disallow="tram rail_urban rail rail_electric ship" speed="13.89" length="10.34" shape="-0.18,1115.19 0.21,1112.39 1.41,1110.38 3.41,1109.18 6.22,1108.77"/>
    </edge>
    <edge id=":node_00x11_2" function="internal">
        <lane id=":node_00x11_2_0" index="0" disallow="tram rail_urban rail rail_electric ship" speed="13.89" length="5.01" shape="6.23,1112.07 4.86,1112.27 3.89,1112.85 3.31,1113.82 3.12,1115.18"/>
    </edge>
    <edge id=":node_00x11_3" function="internal">
        <lane id=":node_00x11_3_0" index="0" disallow="tram rail_urban rail rail_electric ship" speed="13.89" length="10.35" shape="6.23,1112.07 3.41,1111.68 1.41,1110.47 0.22,1108.47 -0.17,1105.65"/>
    </edge>
    <edge id=":node_00x11_4" function="internal">
        <lane id=":node_00x11_4_0" index="0" disallow="tram rail_urban rail rail_electric ship" speed="13.89" length="5.01" shape="3.13,1105.67 3.31,1107.03 3.89,1108.00 4.86,1108.58 6.22,1108.77"/>
    </edge>
    <edge id=":node_00x11_5" function="internal">
        <lane id=":node_00x11_5_0" index="0" disallow="tram rail_urban rail rail_electric ship" speed="13.89" length="9.51" shape="3.13,1105.67 3.12,1115.18"/>
    </edge>
    <edge id=":node_00x12_0" function="internal">
        <lane id=":node_00x12_0_0" index="0" disallow="tram rail_urban rail rail_electric ship" speed="13.89" length="5.08" shape="6.60,1212.01 5.20,1212.22 4.19,1212.80 3.57,1213.77 3.35,1215.10"/>
    </edge>
    <edge id=":node_00x12_1" function="internal">
        <lane id=":node_00x12_1_0" index="0" disallow="tram rail_urban rail rail_electric ship" speed="13.89" length="10.38" shape="6.60,1212.01 3.77,1211.65 1.75,1210.47 0.53,1208.47 0.12,1205.65"/>
    </edge>
    <edge id=":node_00x12_2" function="internal">
        <lane id=":node_00x12_2_0" index="0" disallow="tram rail_urban rail rail_electric ship" speed="13.89" length="5.01" shape="3.42,1205.64 3.62,1207.00 4.21,1207.96 5.18,1208.53 6.55,1208.71"/>
    </edge>
    <edge id=":node_00x12_3" function="internal">
        <lane id=":node_00x12_3_0" index="0" disallow="tram rail_urban rail rail_electric ship" speed="13.89" length="9.47" shape="3.42,1205.64 3.35,1215.10"/>
    </edge>
    <edge id=":node_00x12_4" function="internal">
        <lane id=":node_00x12_4_0" index="0" disallow="tram rail_urban rail rail_electric ship" speed="13.89" length="9.40" shape="0.05,1215.04 0.12,1205.65"/>
    </edge>
    <edge id=":node_00x12_5" function="internal">
        <lane id=":node_00x12_5_0" index="0" disallow="tram rail_urban rail rail_electric ship" speed="13.89" length="10.27" shape="0.05,1215.04 0.50,1212.31 1.73,1210.34 3.75,1209.14 6.55,1208.71"/>
    </edge>
    <edge id=":node_00x13_0" function="internal">
        <lane id=":node_00x13_0_0" index="0" disallow="tram rail_urban rail rail_electric ship" speed="13.89" length="9.74" shape="-1.50,1315.37 -1.56,1305.63"/>
    </edge>
    <edge id=":node_00x13_1" function="internal">
        <lane id=":node_00x13_1_0" index="0" disallow="tram rail_urban rail rail_electric ship" speed="13.89" length="10.55" shape="-1.50,1315.37 -1.17,1312.48 0.00,1310.43 2.03,1309.22 4.92,1308.84"/>
    </edge>
    <edge id=":node_00x13_2" function="internal">
        <lane id=":node_00x13_2_0" index="0" disallow="tram rail_urban rail rail_electric ship" speed="13.89" length="5.05" shape="4.87,1312.14 3.49,1312.32 2.52,1312.90 1.96,1313.89 1.80,1315.27"/>
    </edge>
    <edge id=":node_00x13_3" function="internal">
        <lane id=":node_00x13_3_0" index="0" disallow="tram rail_urban rail rail_electric ship" speed="13.89" length="10.45" shape="4.87,1312.14 2.01,1311.70 -0.01,1310.47 -1.21,1308.45 -1.56,1305.63"/>
    </edge>
    <edge id=":node_00x13_4" function="internal">
        <lane id=":node_00x13_4_0" index="0" disallow="tram rail_urban rail rail_electric ship" speed="13.89" length="5.11" shape="1.73,1305.69 1.91,1307.06 2.50,1308.03 3.50,1308.63 4.92,1308.84"/>
    </edge>
    <edge id=":node_00x13_5" function="internal">
        <lane id=":node_00x13_5_0" index="0" disallow="tram rail_urban rail rail_electric ship" speed="13.89" length="9.58" shape="1.73,1305.69 1.80,1315.27"/>
    </edge>
    <edge id=":node_00x14_0" function="internal">
        <lane id=":node_00x14_0_0" index="0" disallow="tram rail_urban rail rail_electric ship" speed="13.89" length="5.02" shape="7.83,1412.20 6.46,1412.36 5.48,1412.92 4.89,1413.88 4.68,1415.25"/>
    </edge>
    <edge id=":node_00x14_1" function="internal">
        <lane id=":node_00x14_1_0" index="0" disallow="tram rail_urban rail rail_electric ship" speed="13.89" length="10.24" shape="7.83,1412.20 5.04,1411.75 3.01,1410.55 1.76,1408.60 1.28,1405.91"/>
    </edge>
    <edge id=":node_00x14_2" function="internal">
        <lane id=":node_00x14_2_0" index="0" disallow="tram rail_urban rail rail_electric ship" speed="13.89" length="5.12" shape="4.58,1405.81 4.82,1407.13 5.46,1408.08 6.49,1408.67 7.91,1408.90"/>
    </edge>
    <edge id=":node_00x14_3" function="internal">
        <lane id=":node_00x14_3_0" index="0" disallow="tram rail_urban rail rail_electric ship" speed="13.89" length="9.44" shape="4.58,1405.81 4.68,1415.25"/>
    </edge>
    <edge id=":node_00x14_4" function="internal">
        <lane id=":node_00x14_4_0" index="0" disallow="tram rail_urban rail rail_electric ship" speed="13.89" length="9.32" shape="1.38,1415.22 1.28,1405.91"/>
    </edge>
    <edge id=":node_00x14_5" function="internal">
        <lane id=":node_00x14_5_0" index="0" disallow="tram rail_urban rail rail_electric ship" speed="13.89" length="10.41" shape="1.38,1415.22 1.81,1412.40 3.04,1410.40 5.07,1409.23 7.91,1408.90"/>
    </edge>
    <edge id=":node_00x15_0" function="internal">
        <lane id=":node_00x15_0_0" index="0" disallow="tram rail_urban rail rail_electric ship" speed="13.89" length="9.62" shape="0.74,1515.29 0.70,1505.67"/>
    </edge>
    <edge id=":node_00x15_1" function="internal">
        <lane id=":node_00x15_1_0" index="0" disallow="tram rail_urban rail rail_electric ship" speed="13.89" length="10.45" shape="0.74,1515.29 1.10,1512.44 2.29,1510.41 4.31,1509.20 7.16,1508.82"/>
    </edge>
    <edge id=":node_00x15_2" function="internal">
        <lane id=":node_00x15_2_0" index="0" disallow="tram rail_urban rail rail_electric ship" speed="13.89" length="5.03" shape="7.13,1512.12 5.76,1512.31 4.79,1512.89 4.21,1513.86 4.04,1515.23"/>
    </edge>
    <edge id=":node_00x15_3" function="internal">
        <lane id=":node_00x15_3_0" index="0" disallow="tram rail_urban rail rail_electric ship" speed="13.89" length="10.38" shape="7.13,1512.12 4.30,1511.70 2.28,1510.48 1.08,1508.47 0.70,1505.67"/>
    </edge>
    <edge id=":node_00x15_4" function="internal">
        <lane id=":node_00x15_4_0" index="0" disallow="tram rail_urban rail rail_electric ship" speed="13.89" length="5.07" shape="4.00,1505.70 4.19,1507.05 4.77,1508.03 5.77,1508.62 7.16,1508.82"/>
    </edge>
    <edge id=":node_00x15_5" function="internal">
        <lane id=":node_00x15_5_0" index="0" disallow="tram rail_urban rail rail_electric ship" speed="13.89" length="9.54" shape="4.00,1505.70 4.04,1515.23"/>
    </edge>
    <edge id=":node_00x16_0" function="internal">
        <lane id=":node_00x16_0_0" index="0" disallow="tram rail_urban rail rail_electric ship" speed="13.89" length="9.53" shape="2.37,1615.40 2.20,1605.87"/>
    </edge>
    <edge id=":node_00x16_1" function="internal">
        <lane id=":node_00x16_1_0" index="0" disallow="tram rail_urban rail rail_electric ship" speed="13.89" length="10.61" shape="2.37,1615.40 2.73,1612.49 3.94,1610.45 6.00,1609.27 8.92,1608.96"/>
    </edge>
    <edge id=":node_00x16_2" function="internal">
        <lane id=":node_00x16_2_0" index="0" disallow="tram rail_urban rail rail_electric ship" speed="13.89" length="5.07" shape="8.80,1612.25 7.41,1612.40 6.42,1612.97 5.84,1613.94 5.67,1615.33"/>
    </edge>
    <edge id=":node_00x16_3" function="internal">
        <lane id=":node_00x16_3_0" index="0" disallow="tram rail_urban rail rail_electric ship" speed="13.89" length="10.35" shape="8.80,1612.25 5.95,1611.77 3.90,1610.54 2.65,1608.58 2.20,1605.87"/>
    </edge>
    <edge id=":node_00x16_4" function="internal">
        <lane id=":node_00x16_4_0" index="0" disallow="tram rail_urban rail rail_electric ship" speed="13.89" length="5.23" shape="5.50,1605.82 5.73,1607.15 6.38,1608.11 7.44,1608.72 8.92,1608.96"/>
    </edge>
    <edge id=":node_00x16_5" function="internal">
        <lane id=":node_00x16_5_0" index="0" disallow="tram rail_urban rail rail_electric ship" speed="13.89" length="9.52" shape="5.50,1605.82 5.67,1615.33"/>
    </edge>
    <edge id=":node_00x17_0" function="internal">
        <lane id=":node_00x17_0_0" index="0" disallow="tram rail_urban rail rail_electric ship" speed="13.89" length="9.41" shape="4.26,1715.24 4.17,1705.84"/>
    </edge>
    <edge id=":node_00x17_1" function="internal">
        <lane id=":node_00x17_1_0" index="0" disallow="tram rail_urban rail rail_electric ship" speed="13.89" length="10.42" shape="4.26,1715.24 4.66,1712.41 5.88,1710.40 7.91,1709.23 10.76,1708.88"/>
    </edge>
    <edge id=":node_00x17_2" function="internal">
        <lane id=":node_00x17_2_0" index="0" disallow="tram rail_urban rail rail_electric ship" speed="13.89" length="5.02" shape="10.69,1712.18 9.32,1712.34 8.34,1712.91 7.75,1713.88 7.56,1715.24"/>
    </edge>
    <edge id=":node_00x17_3" function="internal">
        <lane id=":node_00x17_3_0" index="0" disallow="tram rail_urban rail rail_electric ship" speed="13.89" length="10.28" shape="10.69,1712.18 7.88,1711.73 5.86,1710.53 4.62,1708.56 4.17,1705.84"/>
    </edge>
    <edge id=":node_00x17_4" function="internal">
        <lane id=":node_00x17_4_0" index="0" disallow="tram rail_urban rail rail_electric ship" speed="13.89" length="5.11" shape="7.47,1705.77 7.69,1707.11 8.32,1708.07 9.34,1708.66 10.76,1708.88"/>
    </edge>
    <edge id=":node_00x17_5" function="internal">
        <lane id=":node_00x17_5_0" index="0" disallow="tram rail_urban rail rail_electric ship" speed="13.89" length="9.47" shape="7.47,1705.77 7.56,1715.24"/>
    </edge>
    <edge id=":node_00x18_0" function="internal">
        <lane id=":node_00x18_0_0" index="0" disallow="tram rail_urban rail rail_electric ship" speed="13.89" length="9.50" shape="4.26,1815.18 4.26,1805.68"/>
    </edge>
    <edge id=":node_00x18_1" function="internal">
        <lane id=":node_00x18_1_0" index="0" disallow="tram rail_urban rail rail_electric ship" speed="13.89" length="10.32" shape="4.26,1815.18 4.66,1812.38 5.86,1810.38 7.86,1809.18 10.66,1808.78"/>
    </edge>
    <edge id=":node_00x18_2" function="internal">
        <lane id=":node_00x18_2_0" index="0" disallow="tram rail_urban rail rail_electric ship" speed="13.89" length="5.00" shape="10.66,1812.08 9.30,1812.27 8.33,1812.85 7.75,1813.82 7.56,1815.18"/>
    </edge>
    <edge id=":node_00x18_3" function="internal">
        <lane id=":node_00x18_3_0" index="0" disallow="tram rail_urban rail rail_electric ship" speed="13.89" length="10.32" shape="10.66,1812.08 7.86,1811.68 5.86,1810.48 4.66,1808.48 4.26,1805.68"/>
    </edge>
    <edge id=":node_00x18_4" function="internal">
        <lane id=":node_00x18_4_0" index="0" disallow="tram rail_urban rail rail_electric ship" speed="13.89" length="5.00" shape="7.56,1805.68 7.75,1807.04 8.33,1808.00 9.30,1808.59 10.66,1808.78"/>
    </edge>
    <edge id=":node_00x18_5" function="internal">
        <lane id=":node_00x18_5_0" index="0" disallow="tram rail_urban rail rail_electric ship" speed="13.89" length="9.50" shape="7.56,1805.68 7.56,1815.18"/>
    </edge>
    <edge id=":node_00x19_0" function="internal">
        <lane id=":node_00x19_0_0" index="0" disallow="tram rail_urban rail rail_electric ship" speed="13.89" length="9.50" shape="4.26,1915.18 4.26,1905.68"/>
    </edge>
    <edge id=":node_00x19_1" function="internal">
        <lane id=":node_00x19_1_0" index="0" disallow="tram rail_urban rail rail_electric ship" speed="13.89" length="10.32" shape="4.26,1915.18 4.66,1912.38 5.86,1910.38 7.86,1909.18 10.66,1908.78"/>
    </edge>
    <edge id=":node_00x19_2" function="internal">
        <lane id=":node_00x19_2_0" index="0" disallow="tram rail_urban rail rail_electric ship" speed="13.89" length="5.00" shape="10.66,1912.08 9.30,1912.27 8.33,1912.85 7.75,1913.82 7.56,1915.18"/>
    </edge>
    <edge id=":node_00x19_3" function="internal">
        <lane id=":node_00x19_3_0" index="0" disallow="tram rail_urban rail rail_electric ship" speed="13.89" length="10.32" shape="10.66,1912.08 7.86,1911.68 5.86,1910.48 4.66,1908.48 4.26,1905.68"/>
    </edge>
    <edge id=":node_00x19_4" function="internal">
        <lane id=":node_00x19_4_0" index="0" disallow="tram rail_urban rail rail_electric ship" speed="13.89" length="5.00" shape="7.56,1905.68 7.75,1907.04 8.33,1908.00 9.30,1908.59 10.66,1908.78"/>
    </edge>
    <edge id=":node_00x19_5" function="internal">