<?xml version='1.0' encoding='UTF-8'?>
<nodes xmlns:xsi="http://www.w3.org/2001/XMLSchema-instance" version="0.27" xsi:noNamespaceSchemaLocation="http://sumo.dlr.de/xsd/edges_file.xsd"><node avg_slowdown_ratio="0.691144708423" id="node_06x09" type="right_before_left" weight_num="3.0" weight_sum="2.07343412527" x="600.00" y="900.00" />
    <node avg_slowdown_ratio="0.687005039598" id="node_07x10" type="right_before_left" weight_num="4.0" weight_sum="2.74802015839" x="700.00" y="1000.00" />
    <node avg_slowdown_ratio="0.61075113991" id="node_06x10" type="right_before_left" weight_num="3.0" weight_sum="1.83225341973" x="600.00" y="1000.00" />
    <node avg_slowdown_ratio="0.565154787618" id="node_06x08" type="right_before_left" weight_num="4.0" weight_sum="2.26061915047" x="600.00" y="800.00" />
    <node avg_slowdown_ratio="0.504139668828" id="node_06x06" type="right_before_left" weight_num="4.0" weight_sum="2.01655867531" x="600.00" y="600.00" />
    <node avg_slowdown_ratio="0.48908087353" id="node_09x14" type="right_before_left" weight_num="3.0" weight_sum="1.46724262059" x="900.00" y="1400.00" />
    <node avg_slowdown_ratio="0.467422606192" id="node_07x11" type="right_before_left" weight_num="4.0" weight_sum="1.86969042477" x="700.00" y="1100.00" />
    <node avg_slowdown_ratio="0.44852411807" id="node_10x08" type="right_before_left" weight_num="3.0" weight_sum="1.34557235421" x="1000.00" y="800.00" />
    <node avg_slowdown_ratio="0.411087113031" id="node_20x01" type="right_before_left" weight_num="2.0" weight_sum="0.822174226062" x="2000.00" y="100.00" />
    <node avg_slowdown_ratio="0.408927285817" id="node_05x09" type="right_before_left" weight_num="3.0" weight_sum="1.22678185745" x="500.00" y="900.00" />
    <node avg_slowdown_ratio="0.37964962803" id="node_08x10" type="right_before_left" weight_num="3.0" weight_sum="1.13894888409" x="800.00" y="1000.00" />
    <node avg_slowdown_ratio="0.3750899928" id="node_09x08" type="right_before_left" weight_num="3.0" weight_sum="1.1252699784" x="900.00" y="800.00" />
    <node avg_slowdown_ratio="0.366690664747" id="node_07x12" type="right_before_left" weight_num="3.0" weight_sum="1.10007199424" x="700.00" y="1200.00" />
    <node avg_slowdown_ratio="0.363390928725" id="node_11x12" type="right_before_left" weight_num="4.0" weight_sum="1.4535637149" x="1100.00" y="1200.00" />
    <node avg_slowdown_ratio="0.362850971922" id="node_06x07" type="right_before_left" weight_num="4.0" weight_sum="1.45140388769" x="600.00" y="700.00" />
    <node avg_slowdown_ratio="0.361411087113" id="node_06x11" type="right_before_left" weight_num="3.0" weight_sum="1.08423326134" x="600.00" y="1100.00" />
    <node avg_slowdown_ratio="0.36117110631" id="node_07x04" type="right_before_left" weight_num="3.0" weight_sum="1.08351331893" x="700.00" y="400.00" />
    <node avg_slowdown_ratio="0.334953203742" id="node_15x05" type="right_before_left" weight_num="4.0" weight_sum="1.33981281497" x="1500.00" y="500.00" />
    <node avg_slowdown_ratio="0.330933525318" id="node_09x15" type="right_before_left" weight_num="3.0" weight_sum="0.992800575954" x="900.00" y="1500.00" />
    <node avg_slowdown_ratio="0.32349412047" id="node_08x15" type="right_before_left" weight_num="3.0" weight_sum="0.970482361411" x="800.00" y="1500.00" />
    <node avg_slowdown_ratio="0.322774178066" id="node_13x08" type="right_before_left" weight_num="3.0" weight_sum="0.968322534197" x="1300.00" y="800.00" />
    <node avg_slowdown_ratio="0.321094312455" id="node_10x13" type="right_before_left" weight_num="4.0" weight_sum="1.28437724982" x="1000.00" y="1300.00" />
    <node avg_slowdown_ratio="0.319174466043" id="node_14x17" type="right_before_left" weight_num="3.0" weight_sum="0.957523398128" x="1400.00" y="1700.00" />
    <node avg_slowdown_ratio="0.316774658027" id="node_14x14" type="right_before_left" weight_num="4.0" weight_sum="1.26709863211" x="1400.00" y="1400.00" />
    <node avg_slowdown_ratio="0.313174946005" id="node_11x06" type="right_before_left" weight_num="4.0" weight_sum="1.25269978402" x="1100.00" y="600.00" />
    <node avg_slowdown_ratio="0.312694984401" id="node_09x04" type="right_before_left" weight_num="3.0" weight_sum="0.938084953204" x="900.00" y="400.00" />
    <node avg_slowdown_ratio="0.30957523398" id="node_12x05" type="right_before_left" weight_num="4.0" weight_sum="1.23830093592" x="1200.00" y="500.00" />
    <node avg_slowdown_ratio="0.309095272378" id="node_08x13" type="right_before_left" weight_num="3.0" weight_sum="0.927285817135" x="800.00" y="1300.00" />
    <node avg_slowdown_ratio="0.307655387569" id="node_17x04" type="right_before_left" weight_num="3.0" weight_sum="0.922966162707" x="1700.00" y="400.00" />
    <node avg_slowdown_ratio="0.307415406768" id="node_15x03" type="right_before_left" weight_num="3.0" weight_sum="0.922246220303" x="1500.00" y="300.00" />
    <node avg_slowdown_ratio="0.30621550276" id="node_02x12" type="right_before_left" weight_num="3.0" weight_sum="0.918646508279" x="200.00" y="1200.00" />
    <node avg_slowdown_ratio="0.305435565155" id="node_07x03" type="right_before_left" weight_num="4.0" weight_sum="1.22174226062" x="700.00" y="300.00" />
    <node avg_slowdown_ratio="0.302855771538" id="node_17x20" type="right_before_left" weight_num="3.0" weight_sum="0.908567314615" x="1700.00" y="2000.00" />
    <node avg_slowdown_ratio="0.301415886729" id="node_06x05" type="right_before_left" weight_num="3.0" weight_sum="0.904247660187" x="600.00" y="500.00" />
    <node avg_slowdown_ratio="0.301115910727" id="node_09x01" type="right_before_left" weight_num="4.0" weight_sum="1.20446364291" x="900.00" y="100.00" />
    <node avg_slowdown_ratio="0.299496040317" id="node_11x02" type="right_before_left" weight_num="3.0" weight_sum="0.898488120951" x="1100.00" y="200.00" />
    <node avg_slowdown_ratio="0.298776097912" id="node_12x17" type="right_before_left" weight_num="3.0" weight_sum="0.896328293737" x="1200.00" y="1700.00" />
    <node avg_slowdown_ratio="0.298296136309" id="node_07x05" type="right_before_left" weight_num="3.0" weight_sum="0.894888408927" x="700.00" y="500.00" />
    <node avg_slowdown_ratio="0.297336213103" id="node_10x06" type="right_before_left" weight_num="4.0" weight_sum="1.18934485241" x="1000.00" y="600.00" />
    <node avg_slowdown_ratio="0.297096232301" id="node_05x14" type="right_before_left" weight_num="3.0" weight_sum="0.891288696904" x="500.00" y="1400.00" />
    <node avg_slowdown_ratio="0.2968562515" id="node_14x10" type="right_before_left" weight_num="3.0" weight_sum="0.890568754499" x="1400.00" y="1000.00" />
    <node avg_slowdown_ratio="0.296376289897" id="node_11x15" type="right_before_left" weight_num="3.0" weight_sum="0.88912886969" x="1100.00" y="1500.00" />
    <node avg_slowdown_ratio="0.296136309095" id="node_13x11" type="right_before_left" weight_num="3.0" weight_sum="0.888408927286" x="1300.00" y="1100.00" />
    <node avg_slowdown_ratio="0.295896328294" id="node_09x06" type="right_before_left" weight_num="3.0" weight_sum="0.887688984882" x="900.00" y="600.00" />
    <node avg_slowdown_ratio="0.29517638589" id="node_14x09" type="right_before_left" weight_num="4.0" weight_sum="1.18070554356" x="1400.00" y="900.00" />
    <node avg_slowdown_ratio="0.29517638589" id="node_15x06" type="right_before_left" weight_num="4.0" weight_sum="1.18070554356" x="1500.00" y="600.00" />
    <node avg_slowdown_ratio="0.293016558675" id="node_10x05" type="right_before_left" weight_num="4.0" weight_sum="1.1720662347" x="1000.00" y="500.00" />
    <node avg_slowdown_ratio="0.292296616271" id="node_09x10" type="right_before_left" weight_num="3.0" weight_sum="0.876889848812" x="900.00" y="1000.00" />
    <node avg_slowdown_ratio="0.290856731463" id="node_05x18" type="right_before_left" weight_num="4.0" weight_sum="1.16342692585" x="500.00" y="1800.00" />
    <node avg_slowdown_ratio="0.289656827454" id="node_06x04" type="right_before_left" weight_num="3.0" weight_sum="0.868970482361" x="600.00" y="400.00" />
    <node avg_slowdown_ratio="0.28887688985" id="node_14x11" type="right_before_left" weight_num="4.0" weight_sum="1.1555075594" x="1400.00" y="1100.00" />
    <node avg_slowdown_ratio="0.288696904248" id="node_00x03" type="right_before_left" weight_num="3.0" weight_sum="0.866090712743" x="0.00" y="300.00" />
    <node avg_slowdown_ratio="0.287796976243" id="node_11x05" type="right_before_left" weight_num="4.0" weight_sum="1.15118790497" x="1100.00" y="500.00" />
    <node avg_slowdown_ratio="0.28743700504" id="node_05x08" type="right_before_left" weight_num="4.0" weight_sum="1.14974802016" x="500.00" y="800.00" />
    <node avg_slowdown_ratio="0.286777057835" id="node_13x12" type="right_before_left" weight_num="3.0" weight_sum="0.860331173506" x="1300.00" y="1200.00" />
    <node avg_slowdown_ratio="0.286537077034" id="node_04x12" type="right_before_left" weight_num="2.0" weight_sum="0.573074154068" x="400.00" y="1200.00" />
    <node avg_slowdown_ratio="0.286057115431" id="node_20x10" type="right_before_left" weight_num="3.0" weight_sum="0.858171346292" x="2000.00" y="1000.00" />
    <node avg_slowdown_ratio="0.285817134629" id="node_03x16" type="right_before_left" weight_num="2.0" weight_sum="0.571634269258" x="300.00" y="1600.00" />
    <node avg_slowdown_ratio="0.285637149027" id="node_16x17" type="right_before_left" weight_num="4.0" weight_sum="1.14254859611" x="1600.00" y="1700.00" />
    <node avg_slowdown_ratio="0.283477321815" id="node_05x17" type="right_before_left" weight_num="4.0" weight_sum="1.13390928726" x="500.00" y="1700.00" />
    <node avg_slowdown_ratio="0.282577393808" id="node_10x07" type="right_before_left" weight_num="4.0" weight_sum="1.13030957523" x="1000.00" y="700.00" />
    <node avg_slowdown_ratio="0.281977441804" id="node_08x14" type="right_before_left" weight_num="3.0" weight_sum="0.845932325413" x="800.00" y="1400.00" />
    <node avg_slowdown_ratio="0.281737461003" id="node_11x13" type="right_before_left" weight_num="3.0" weight_sum="0.845212383009" x="1100.00" y="1300.00" />
    <node avg_slowdown_ratio="0.281497480202" id="node_00x07" type="right_before_left" weight_num="3.0" weight_sum="0.844492440605" x="0.00" y="700.00" />
    <node avg_slowdown_ratio="0.281497480202" id="node_10x04" type="right_before_left" weight_num="4.0" weight_sum="1.12598992081" x="1000.00" y="400.00" />
    <node avg_slowdown_ratio="0.281137509" id="node_14x07" type="right_before_left" weight_num="4.0" weight_sum="1.124550036" x="1400.00" y="700.00" />
    <node avg_slowdown_ratio="0.281017518598" id="node_13x18" type="right_before_left" weight_num="3.0" weight_sum="0.843052555795" x="1300.00" y="1800.00" />
    <node avg_slowdown_ratio="0.280537556995" id="node_09x02" type="right_before_left" weight_num="3.0" weight_sum="0.841612670986" x="900.00" y="200.00" />
    <node avg_slowdown_ratio="0.279097672186" id="node_05x19" type="right_before_left" weight_num="3.0" weight_sum="0.837293016559" x="500.00" y="1900.00" />
    <node avg_slowdown_ratio="0.278857691385" id="node_12x13" type="right_before_left" weight_num="3.0" weight_sum="0.836573074154" x="1200.00" y="1300.00" />
    <node avg_slowdown_ratio="0.278617710583" id="node_04x16" type="right_before_left" weight_num="3.0" weight_sum="0.835853131749" x="400.00" y="1600.00" />
    <node avg_slowdown_ratio="0.278617710583" id="node_12x02" type="right_before_left" weight_num="3.0" weight_sum="0.835853131749" x="1200.00" y="200.00" />
    <node avg_slowdown_ratio="0.27807775378" id="node_03x10" type="right_before_left" weight_num="4.0" weight_sum="1.11231101512" x="300.00" y="1000.00" />
    <node avg_slowdown_ratio="0.27645788337" id="node_12x10" type="right_before_left" weight_num="3.0" weight_sum="0.829373650109" x="1200.00" y="1000.00" />
    <node avg_slowdown_ratio="0.276457883369" id="node_15x17" type="right_before_left" weight_num="3.0" weight_sum="0.829373650108" x="1500.00" y="1700.00" />
    <node avg_slowdown_ratio="0.276217902568" id="node_18x16" type="right_before_left" weight_num="3.0" weight_sum="0.828653707703" x="1800.00" y="1600.00" />
    <node avg_slowdown_ratio="0.275737940965" id="node_03x14" type="right_before_left" weight_num="4.0" weight_sum="1.10295176386" x="300.00" y="1400.00" />
    <node avg_slowdown_ratio="0.275737940965" id="node_09x18" type="right_before_left" weight_num="3.0" weight_sum="0.827213822894" x="900.00" y="1800.00" />
    <node avg_slowdown_ratio="0.275197984163" id="node_18x15" type="right_before_left" weight_num="4.0" weight_sum="1.10079193665" x="1800.00" y="1500.00" />
    <node avg_slowdown_ratio="0.273218142549" id="node_07x07" type="right_before_left" weight_num="2.0" weight_sum="0.546436285097" x="700.00" y="700.00" />
    <node avg_slowdown_ratio="0.272858171346" id="node_07x06" type="right_before_left" weight_num="3.0" weight_sum="0.818574514038" x="700.00" y="600.00" />
    <node avg_slowdown_ratio="0.272858171346" id="node_13x17" type="right_before_left" weight_num="3.0" weight_sum="0.818574514039" x="1300.00" y="1700.00" />
    <node avg_slowdown_ratio="0.271418286537" id="node_13x07" type="right_before_left" weight_num="2.0" weight_sum="0.542836573074" x="1300.00" y="700.00" />
    <node avg_slowdown_ratio="0.271178305735" id="node_18x17" type="right_before_left" weight_num="3.0" weight_sum="0.813534917206" x="1800.00" y="1700.00" />
    <node avg_slowdown_ratio="0.270938324934" id="node_11x19" type="right_before_left" weight_num="3.0" weight_sum="0.812814974802" x="1100.00" y="1900.00" />
    <node avg_slowdown_ratio="0.269978401728" id="node_12x18" type="right_before_left" weight_num="3.0" weight_sum="0.809935205184" x="1200.00" y="1800.00" />
    <node avg_slowdown_ratio="0.269738420926" id="node_07x17" type="right_before_left" weight_num="3.0" weight_sum="0.809215262779" x="700.00" y="1700.00" />
    <node avg_slowdown_ratio="0.269018478522" id="node_11x09" type="right_before_left" weight_num="3.0" weight_sum="0.807055435565" x="1100.00" y="900.00" />
    <node avg_slowdown_ratio="0.268898488121" id="node_12x14" type="right_before_left" weight_num="2.0" weight_sum="0.537796976242" x="1200.00" y="1400.00" />
    <node avg_slowdown_ratio="0.26889848812" id="node_01x10" type="right_before_left" weight_num="4.0" weight_sum="1.07559395248" x="100.00" y="1000.00" />
    <node avg_slowdown_ratio="0.26889848812" id="node_05x01" type="right_before_left" weight_num="2.0" weight_sum="0.537796976241" x="500.00" y="100.00" />
    <node avg_slowdown_ratio="0.26877849772" id="node_05x15" type="right_before_left" weight_num="3.0" weight_sum="0.806335493161" x="500.00" y="1500.00" />
    <node avg_slowdown_ratio="0.268538516919" id="node_06x17" type="right_before_left" weight_num="3.0" weight_sum="0.805615550756" x="600.00" y="1700.00" />
    <node avg_slowdown_ratio="0.268538516919" id="node_16x08" type="right_before_left" weight_num="2.0" weight_sum="0.537077033837" x="1600.00" y="800.00" />
    <node avg_slowdown_ratio="0.268298536117" id="node_13x09" type="right_before_left" weight_num="3.0" weight_sum="0.804895608352" x="1300.00" y="900.00" />
    <node avg_slowdown_ratio="0.268058555316" id="node_08x12" type="right_before_left" weight_num="3.0" weight_sum="0.804175665947" x="800.00" y="1200.00" />
    <node avg_slowdown_ratio="0.267818574514" id="node_11x18" type="right_before_left" weight_num="3.0" weight_sum="0.803455723542" x="1100.00" y="1800.00" />
    <node avg_slowdown_ratio="0.26709863211" id="node_00x18" type="right_before_left" weight_num="2.0" weight_sum="0.534197264219" x="0.00" y="1800.00" />
    <node avg_slowdown_ratio="0.26709863211" id="node_08x09" type="right_before_left" weight_num="2.0" weight_sum="0.534197264219" x="800.00" y="900.00" />
    <node avg_slowdown_ratio="0.267098632109" id="node_15x08" type="right_before_left" weight_num="3.0" weight_sum="0.801295896328" x="1500.00" y="800.00" />
    <node avg_slowdown_ratio="0.267098632109" id="node_15x10" type="right_before_left" weight_num="2.0" weight_sum="0.534197264218" x="1500.00" y="1000.00" />
    <node avg_slowdown_ratio="0.2656587473" id="node_11x08" type="right_before_left" weight_num="3.0" weight_sum="0.7969762419" x="1100.00" y="800.00" />
    <node avg_slowdown_ratio="0.265418766499" id="node_19x15" type="right_before_left" weight_num="3.0" weight_sum="0.796256299496" x="1900.00" y="1500.00" />
    <node avg_slowdown_ratio="0.264938804896" id="node_10x14" type="right_before_left" weight_num="3.0" weight_sum="0.794816414687" x="1000.00" y="1400.00" />
    <node avg_slowdown_ratio="0.264578833693" id="node_19x04" type="right_before_left" weight_num="2.0" weight_sum="0.529157667386" x="1900.00" y="400.00" />
    <node avg_slowdown_ratio="0.264458843293" id="node_16x20" type="right_before_left" weight_num="3.0" weight_sum="0.793376529878" x="1600.00" y="2000.00" />
    <node avg_slowdown_ratio="0.263018958483" id="node_01x00" type="right_before_left" weight_num="3.0" weight_sum="0.789056875449" x="100.00" y="0.00" />
    <node avg_slowdown_ratio="0.26259899208" id="node_14x08" type="right_before_left" weight_num="4.0" weight_sum="1.05039596832" x="1400.00" y="800.00" />
    <node avg_slowdown_ratio="0.26253899688" id="node_09x16" type="right_before_left" weight_num="3.0" weight_sum="0.787616990641" x="900.00" y="1600.00" />
    <node avg_slowdown_ratio="0.261819054476" id="node_04x11" type="right_before_left" weight_num="3.0" weight_sum="0.785457163427" x="400.00" y="1100.00" />
    <node avg_slowdown_ratio="0.261699064075" id="node_06x02" type="right_before_left" weight_num="2.0" weight_sum="0.52339812815" x="600.00" y="200.00" />
    <node avg_slowdown_ratio="0.260979121671" id="node_09x05" type="right_before_left" weight_num="2.0" weight_sum="0.521958243341" x="900.00" y="500.00" />
    <node avg_slowdown_ratio="0.260619150468" id="node_07x15" type="right_before_left" weight_num="3.0" weight_sum="0.781857451404" x="700.00" y="1500.00" />
    <node avg_slowdown_ratio="0.260619150468" id="node_14x05" type="right_before_left" weight_num="3.0" weight_sum="0.781857451403" x="1400.00" y="500.00" />
    <node avg_slowdown_ratio="0.260379169666" id="node_01x06" type="right_before_left" weight_num="3.0" weight_sum="0.781137508999" x="100.00" y="600.00" />
    <node avg_slowdown_ratio="0.260379169666" id="node_06x03" type="right_before_left" weight_num="3.0" weight_sum="0.781137508999" x="600.00" y="300.00" />
    <node avg_slowdown_ratio="0.259719222463" id="node_15x04" type="right_before_left" weight_num="4.0" weight_sum="1.03887688985" x="1500.00" y="400.00" />
    <node avg_slowdown_ratio="0.25941924646" id="node_06x12" type="right_before_left" weight_num="3.0" weight_sum="0.778257739381" x="600.00" y="1200.00" />
    <node avg_slowdown_ratio="0.259179265659" id="node_20x08" type="right_before_left" weight_num="3.0" weight_sum="0.777537796976" x="2000.00" y="800.00" />
    <node avg_slowdown_ratio="0.258939284857" id="node_03x19" type="right_before_left" weight_num="3.0" weight_sum="0.776817854572" x="300.00" y="1900.00" />
    <node avg_slowdown_ratio="0.258819294456" id="node_12x06" type="right_before_left" weight_num="2.0" weight_sum="0.517638588913" x="1200.00" y="600.00" />
    <node avg_slowdown_ratio="0.257979361651" id="node_16x05" type="right_before_left" weight_num="3.0" weight_sum="0.773938084953" x="1600.00" y="500.00" />
    <node avg_slowdown_ratio="0.25773938085" id="node_06x20" type="right_before_left" weight_num="3.0" weight_sum="0.773218142549" x="600.00" y="2000.00" />
    <node avg_slowdown_ratio="0.257739380849" id="node_07x08" type="right_before_left" weight_num="2.0" weight_sum="0.515478761699" x="700.00" y="800.00" />
    <node avg_slowdown_ratio="0.257739380849" id="node_17x08" type="right_before_left" weight_num="2.0" weight_sum="0.515478761699" x="1700.00" y="800.00" />
    <node avg_slowdown_ratio="0.256659467242" id="node_00x19" type="right_before_left" weight_num="2.0" weight_sum="0.513318934485" x="0.00" y="1900.00" />
    <node avg_slowdown_ratio="0.256539476842" id="node_18x07" type="right_before_left" weight_num="3.0" weight_sum="0.769618430526" x="1800.00" y="700.00" />
    <node avg_slowdown_ratio="0.256299496041" id="node_01x05" type="right_before_left" weight_num="2.0" weight_sum="0.512598992081" x="100.00" y="500.00" />
    <node avg_slowdown_ratio="0.255939524838" id="node_19x10" type="right_before_left" weight_num="2.0" weight_sum="0.511879049676" x="1900.00" y="1000.00" />
    <node avg_slowdown_ratio="0.255339572834" id="node_01x16" type="right_before_left" weight_num="3.0" weight_sum="0.766018718503" x="100.00" y="1600.00" />
    <node avg_slowdown_ratio="0.255339572834" id="node_02x19" type="right_before_left" weight_num="3.0" weight_sum="0.766018718502" x="200.00" y="1900.00" />
    <node avg_slowdown_ratio="0.255339572834" id="node_16x13" type="right_before_left" weight_num="3.0" weight_sum="0.766018718502" x="1600.00" y="1300.00" />
    <node avg_slowdown_ratio="0.255099592033" id="node_01x13" type="right_before_left" weight_num="3.0" weight_sum="0.765298776099" x="100.00" y="1300.00" />
    <node avg_slowdown_ratio="0.255099592033" id="node_08x03" type="right_before_left" weight_num="3.0" weight_sum="0.765298776098" x="800.00" y="300.00" />
    <node avg_slowdown_ratio="0.254859611231" id="node_11x20" type="right_before_left" weight_num="2.0" weight_sum="0.509719222462" x="1100.00" y="2000.00" />
    <node avg_slowdown_ratio="0.254139668827" id="node_04x18" type="right_before_left" weight_num="2.0" weight_sum="0.508279337653" x="400.00" y="1800.00" />
    <node avg_slowdown_ratio="0.254139668827" id="node_07x09" type="right_before_left" weight_num="2.0" weight_sum="0.508279337653" x="700.00" y="900.00" />
    <node avg_slowdown_ratio="0.253899688025" id="node_07x01" type="right_before_left" weight_num="3.0" weight_sum="0.761699064074" x="700.00" y="100.00" />
    <node avg_slowdown_ratio="0.253899688025" id="node_16x11" type="right_before_left" weight_num="3.0" weight_sum="0.761699064075" x="1600.00" y="1100.00" />
    <node avg_slowdown_ratio="0.253779697624" id="node_03x18" type="right_before_left" weight_num="2.0" weight_sum="0.507559395249" x="300.00" y="1800.00" />
    <node avg_slowdown_ratio="0.253419726422" id="node_17x10" type="right_before_left" weight_num="3.0" weight_sum="0.760259179266" x="1700.00" y="1000.00" />
    <node avg_slowdown_ratio="0.253419726422" id="node_19x06" type="right_before_left" weight_num="4.0" weight_sum="1.01367890569" x="1900.00" y="600.00" />
    <node avg_slowdown_ratio="0.253419726422" id="node_19x14" type="right_before_left" weight_num="2.0" weight_sum="0.506839452843" x="1900.00" y="1400.00" />
    <node avg_slowdown_ratio="0.252699784018" id="node_00x16" type="right_before_left" weight_num="3.0" weight_sum="0.758099352053" x="0.00" y="1600.00" />
    <node avg_slowdown_ratio="0.252699784017" id="node_02x01" type="right_before_left" weight_num="3.0" weight_sum="0.758099352052" x="200.00" y="100.00" />
    <node avg_slowdown_ratio="0.252699784017" id="node_09x17" type="right_before_left" weight_num="2.0" weight_sum="0.505399568035" x="900.00" y="1700.00" />
    <node avg_slowdown_ratio="0.252699784017" id="node_19x09" type="right_before_left" weight_num="3.0" weight_sum="0.758099352052" x="1900.00" y="900.00" />
    <node avg_slowdown_ratio="0.252519798415" id="node_04x19" type="right_before_left" weight_num="4.0" weight_sum="1.01007919366" x="400.00" y="1900.00" />
    <node avg_slowdown_ratio="0.252339812815" id="node_10x12" type="right_before_left" weight_num="2.0" weight_sum="0.50467962563" x="1000.00" y="1200.00" />
    <node avg_slowdown_ratio="0.252339812815" id="node_16x09" type="right_before_left" weight_num="2.0" weight_sum="0.50467962563" x="1600.00" y="900.00" />
    <node avg_slowdown_ratio="0.251979841612" id="node_14x06" type="right_before_left" weight_num="4.0" weight_sum="1.00791936645" x="1400.00" y="600.00" />
    <node avg_slowdown_ratio="0.251739860811" id="node_04x05" type="right_before_left" weight_num="3.0" weight_sum="0.755219582433" x="400.00" y="500.00" />
    <node avg_slowdown_ratio="0.251259899208" id="node_03x03" type="right_before_left" weight_num="3.0" weight_sum="0.753779697624" x="300.00" y="300.00" />
    <node avg_slowdown_ratio="0.251019918407" id="node_13x05" type="right_before_left" weight_num="3.0" weight_sum="0.75305975522" x="1300.00" y="500.00" />
    <node avg_slowdown_ratio="0.251019918406" id="node_00x17" type="right_before_left" weight_num="3.0" weight_sum="0.753059755219" x="0.00" y="1700.00" />
    <node avg_slowdown_ratio="0.250899928006" id="node_09x07" type="right_before_left" weight_num="2.0" weight_sum="0.501799856012" x="900.00" y="700.00" />
    <node avg_slowdown_ratio="0.250899928005" id="node_17x15" type="right_before_left" weight_num="4.0" weight_sum="1.00359971202" x="1700.00" y="1500.00" />
    <node avg_slowdown_ratio="0.250539956803" id="node_01x14" type="right_before_left" weight_num="3.0" weight_sum="0.75161987041" x="100.00" y="1400.00" />
    <node avg_slowdown_ratio="0.250539956803" id="node_18x08" type="right_before_left" weight_num="2.0" weight_sum="0.501079913607" x="1800.00" y="800.00" />
    <node avg_slowdown_ratio="0.250299976002" id="node_00x02" type="right_before_left" weight_num="3.0" weight_sum="0.750899928005" x="0.00" y="200.00" />
    <node avg_slowdown_ratio="0.250299976002" id="node_05x12" type="right_before_left" weight_num="3.0" weight_sum="0.750899928006" x="500.00" y="1200.00" />
    <node avg_slowdown_ratio="0.2501799856" id="node_06x19" type="right_before_left" weight_num="4.0" weight_sum="1.0007199424" x="600.00" y="1900.00" />
    <node avg_slowdown_ratio="0.249820014399" id="node_20x09" type="right_before_left" weight_num="3.0" weight_sum="0.749460043197" x="2000.00" y="900.00" />
    <node avg_slowdown_ratio="0.249820014398" id="node_10x20" type="right_before_left" weight_num="2.0" weight_sum="0.499640028797" x="1000.00" y="2000.00" />
    <node avg_slowdown_ratio="0.249460043197" id="node_04x15" type="right_before_left" weight_num="4.0" weight_sum="0.997840172787" x="400.00" y="1500.00" />
    <node avg_slowdown_ratio="0.249280057596" id="node_04x10" type="right_before_left" weight_num="4.0" weight_sum="0.997120230383" x="400.00" y="1000.00" />
    <node avg_slowdown_ratio="0.248920086393" id="node_14x18" type="right_before_left" weight_num="4.0" weight_sum="0.995680345572" x="1400.00" y="1800.00" />
    <node avg_slowdown_ratio="0.248740100792" id="node_01x19" type="right_before_left" weight_num="2.0" weight_sum="0.497480201584" x="100.00" y="1900.00" />
    <node avg_slowdown_ratio="0.248740100792" id="node_03x05" type="right_before_left" weight_num="2.0" weight_sum="0.497480201584" x="300.00" y="500.00" />
    <node avg_slowdown_ratio="0.248740100792" id="node_05x07" type="right_before_left" weight_num="2.0" weight_sum="0.497480201584" x="500.00" y="700.00" />
    <node avg_slowdown_ratio="0.248620110391" id="node_01x20" type="right_before_left" weight_num="3.0" weight_sum="0.745860331173" x="100.00" y="2000.00" />
    <node avg_slowdown_ratio="0.248620110391" id="node_08x02" type="right_before_left" weight_num="3.0" weight_sum="0.745860331174" x="800.00" y="200.00" />
    <node avg_slowdown_ratio="0.248620110391" id="node_16x18" type="right_before_left" weight_num="3.0" weight_sum="0.745860331173" x="1600.00" y="1800.00" />
    <node avg_slowdown_ratio="0.24838012959" id="node_11x07" type="right_before_left" weight_num="3.0" weight_sum="0.745140388769" x="1100.00" y="700.00" />
    <node avg_slowdown_ratio="0.24838012959" id="node_15x20" type="right_before_left" weight_num="2.0" weight_sum="0.496760259179" x="1500.00" y="2000.00" />
    <node avg_slowdown_ratio="0.248140148788" id="node_16x19" type="right_before_left" weight_num="3.0" weight_sum="0.744420446365" x="1600.00" y="1900.00" />
    <node avg_slowdown_ratio="0.248020158387" id="node_07x13" type="right_before_left" weight_num="2.0" weight_sum="0.496040316775" x="700.00" y="1300.00" />
    <node avg_slowdown_ratio="0.247660187185" id="node_06x18" type="right_before_left" weight_num="3.0" weight_sum="0.742980561555" x="600.00" y="1800.00" />
    <node avg_slowdown_ratio="0.247660187185" id="node_08x08" type="right_before_left" weight_num="2.0" weight_sum="0.49532037437" x="800.00" y="800.00" />
    <node avg_slowdown_ratio="0.247660187185" id="node_10x18" type="right_before_left" weight_num="3.0" weight_sum="0.742980561555" x="1000.00" y="1800.00" />
    <node avg_slowdown_ratio="0.247420206384" id="node_15x14" type="right_before_left" weight_num="3.0" weight_sum="0.742260619151" x="1500.00" y="1400.00" />
    <node avg_slowdown_ratio="0.247300215983" id="node_14x12" type="right_before_left" weight_num="2.0" weight_sum="0.494600431966" x="1400.00" y="1200.00" />
    <node avg_slowdown_ratio="0.247300215982" id="node_02x14" type="right_before_left" weight_num="2.0" weight_sum="0.494600431965" x="200.00" y="1400.00" />
    <node avg_slowdown_ratio="0.246940244781" id="node_01x01" type="right_before_left" weight_num="2.0" weight_sum="0.493880489561" x="100.00" y="100.00" />
    <node avg_slowdown_ratio="0.246940244781" id="node_02x08" type="right_before_left" weight_num="4.0" weight_sum="0.987760979122" x="200.00" y="800.00" />
    <node avg_slowdown_ratio="0.246940244781" id="node_18x12" type="right_before_left" weight_num="2.0" weight_sum="0.493880489561" x="1800.00" y="1200.00" />
    <node avg_slowdown_ratio="0.24694024478" id="node_03x15" type="right_before_left" weight_num="3.0" weight_sum="0.740820734341" x="300.00" y="1500.00" />
    <node avg_slowdown_ratio="0.24694024478" id="node_05x11" type="right_before_left" weight_num="3.0" weight_sum="0.74082073434" x="500.00" y="1100.00" />