<?xml version='1.0' encoding='UTF-8'?>
<nodes xmlns:xsi="http://www.w3.org/2001/XMLSchema-instance" version="0.27" xsi:noNamespaceSchemaLocation="http://sumo.dlr.de/xsd/nodes_file.xsd"><node id="2517376273" type="priority" x="11268.16" y="14743.20" />
    <node id="1329910359" type="priority" x="11396.03" y="14187.17" />
    <node id="1492984522" type="priority" x="15234.68" y="3930.93" />
    <node id="1492984511" type="priority" x="15219.29" y="3933.68" />
    <node id="cluster_1715808203_1715808242_1715808253" type="priority" x="18261.33" y="3363.63" />
    <node id="1715808226" type="priority" x="18288.00" y="3377.81" />
    <node id="1726515058" type="priority" x="16071.64" y="3320.29" />
    <node id="1726515104" type="priority" x="16094.00" y="3377.72" />
    <node id="262629494" type="priority" x="15988.17" y="3105.94" />
    <node id="1726514944" type="priority" x="15917.93" y="2925.56" />
    <node id="1726515052" type="priority" x="16173.54" y="3280.59" />
    <node id="1726515051" type="priority" x="16359.86" y="3207.95" />
    <node id="262629482" type="priority" x="16526.81" y="3142.89" />
    <node id="cluster_1726515078_1726515098_1726515102" type="priority" x="16206.81" y="3367.35" />
    <node id="1726514904" type="priority" x="16011.49" y="2866.00" />
    <node id="1791246568" type="priority" x="13148.44" y="9796.87" />
    <node id="2008259367" type="priority" x="12922.20" y="9751.59" />
    <node id="2503228163" type="priority" x="12784.42" y="11162.44" />
    <node id="cluster_cluster_gneJ218_gneJ219_gneJ220_gneJ221" type="priority" x="13403.86" y="10348.62" />
    <node id="1799687501" type="priority" x="10624.41" y="12679.21" />
    <node id="1799687294" type="priority" x="10594.02" y="12526.23" />
    <node id="1799687408" type="priority" x="10561.43" y="12368.43" />
    <node id="1799687181" type="priority" x="10405.20" y="12589.70" />
    <node id="cluster_3976263540_3976263541" type="priority" x="14732.47" y="4406.13" />
    <node id="1802871258" type="priority" x="14464.04" y="4449.93" />
    <node id="cluster_1812118929_261703300" type="priority" x="5351.43" y="7570.03" />
    <node id="261703228" type="priority" x="5327.40" y="7547.44" />
    <node id="1813324323" type="priority" x="17427.56" y="4970.38" />
    <node id="1813324329" type="priority" x="17392.49" y="4963.25" />
    <node id="1813823450" type="priority" x="9513.43" y="11800.86" />
    <node id="1813825074" type="priority" x="9475.26" y="11870.14" />
    <node id="1815463678" type="priority" x="9418.46" y="11735.56" />
    <node id="1636594599" type="priority" x="9439.91" y="11725.29" />
    <node id="3951635651" type="priority" x="17552.39" y="3130.40" />
    <node id="1815468816" type="priority" x="17661.83" y="3079.34" />
    <node id="1815471168" type="priority" x="18148.86" y="2863.27" />
    <node id="-170405842-AddedOffRampNode" type="priority" x="17782.67" y="3111.06" />
    <node id="1815468819" type="priority" x="17714.26" y="3103.55" />
    <node id="1845029925" type="priority" x="10480.24" y="9940.20" />
    <node id="gneJ9" type="priority" x="10227.66" y="9832.60" />
    <node id="1947346442" type="priority" x="10689.54" y="10031.51" />
    <node id="2085347316" type="priority" x="9730.71" y="11264.67" />
    <node id="1928871725" type="priority" x="9706.47" y="11294.76" />
    <node id="1928871729" type="priority" x="9768.48" y="11215.16" />
    <node id="2409499740" type="priority" x="9356.82" y="11033.72" />
    <node id="2409499736" type="priority" x="9338.64" y="11020.14" />
    <node id="2371668306" type="priority" x="9430.50" y="11088.72" />
    <node id="2409503104" type="priority" x="9516.73" y="11153.09" />
    <node id="2371668255" type="priority" x="9570.40" y="11193.17" />
    <node id="2085347314" type="priority" x="9586.77" y="11205.40" />
    <node id="2085347322" type="priority" x="9724.31" y="11308.08" />
    <node id="2085347320" type="priority" x="9509.53" y="10982.64" />
    <node id="2409499711" type="priority" x="9436.08" y="10929.10" />
    <node id="2409503054" type="priority" x="9589.70" y="11043.00" />
    <node id="2371668279" type="priority" x="9648.23" y="11087.04" />
    <node id="2085347318" type="priority" x="9665.57" y="11100.10" />
    <node id="2371668300" type="priority" x="9752.22" y="11165.49" />
    <node id="1928871732" type="priority" x="9786.33" y="11191.24" />
    <node id="3853643009" type="priority" x="17307.46" y="3122.56" />
    <node id="2111285370" tl="GS_2111285370" type="traffic_light" x="17303.71" y="3163.83" />
    <node id="3853650951" type="priority" x="17235.39" y="3152.18" />
    <node id="2111285361" tl="GS_2111285361" type="traffic_light" x="17236.58" y="3107.81" />
    <node id="1067889676" type="priority" x="9487.90" y="11711.87" />
    <node id="2154079957" type="priority" x="9501.47" y="11708.71" />
    <node id="3087263322" type="priority" x="9928.75" y="12954.60" />
    <node id="2210137576" type="priority" x="10022.99" y="12933.64" />
    <node id="2210230374" type="priority" x="10621.60" y="12693.46" />
    <node id="1803678891" type="priority" x="10406.57" y="12609.77" />
    <node id="2323788954" type="priority" x="9296.53" y="11587.35" />
    <node id="1067889528" type="priority" x="9269.96" y="11590.70" />
    <node id="2323788955" type="priority" x="9266.48" y="11565.29" />
    <node id="261615129" type="priority" x="3714.65" y="8089.58" />
    <node id="2345185435" type="priority" x="3704.21" y="7923.03" />
    <node id="4014928949" type="priority" x="12161.75" y="10236.51" />
    <node id="cluster_cluster_2358329523_4014927757_cluster_2358329559_4014927758" type="priority" x="12130.03" y="10215.21" />
    <node id="-227103756#2-AddedOffRampNode" type="priority" x="12253.07" y="10273.92" />
    <node id="cluster_1791246604_1791246605_2008259378_2008259379" tl="cluster_1791246604_1791246605_2008259378_2008259379" type="traffic_light" x="12380.48" y="10338.64" />
    <node id="gneJ49" type="priority" x="12351.28" y="10329.30" />
    <node id="2358329505" type="priority" x="14634.12" y="5641.93" />
    <node id="cluster_2358329460_4083474287" type="priority" x="14610.71" y="5635.16" />
    <node id="2358468798" type="priority" x="7994.13" y="10515.55" />
    <node id="2358468823" type="priority" x="7986.32" y="10481.00" />
    <node id="263051572" type="priority" x="13361.27" y="5635.97" />
    <node id="2360072084" type="priority" x="13366.75" y="5692.22" />
    <node id="2360583352" type="priority" x="10686.17" y="8957.40" />
    <node id="1636604844" tl="1636604844" type="traffic_light" x="10456.53" y="9398.29" />
    <node id="3025256565" type="priority" x="10698.73" y="8916.72" />
    <node id="2361777081" type="priority" x="9243.33" y="11039.98" />
    <node id="2361777075" type="priority" x="9252.81" y="11075.35" />
    <node id="1462167256" type="priority" x="10342.61" y="9445.04" />
    <node id="2364145344" type="priority" x="10419.52" y="9358.22" />
    <node id="2371668308" type="priority" x="9760.17" y="11088.87" />
    <node id="2371668260" type="priority" x="9760.33" y="11055.16" />
    <node id="2371668303" type="priority" x="9790.83" y="11077.66" />
    <node id="2374441771" type="priority" x="16939.34" y="4431.16" />
    <node id="2374441710" type="priority" x="16907.81" y="4435.83" />
    <node id="1813344736" type="priority" x="17473.54" y="4905.11" />
    <node id="3971086813" type="priority" x="17404.84" y="4923.36" />
    <node id="3619687527" type="priority" x="17386.80" y="4916.24" />
    <node id="3971055464" type="priority" x="17376.60" y="4912.50" />
    <node id="cluster_3961200217_3971086816" type="priority" x="17374.99" y="4900.25" />
    <node id="2374441745" type="priority" x="17337.09" y="4867.67" />
    <node id="3971086815" type="priority" x="17387.53" y="4924.89" />
    <node id="cluster_3971062821_3971073514_3971091607" type="priority" x="17423.98" y="4942.57" />
    <node id="1813324334" type="priority" x="17416.53" y="4957.79" />
    <node id="1813344262" type="priority" x="17324.76" y="4935.45" />
    <node id="2374441816" type="priority" x="16933.27" y="4414.66" />
    <node id="2374441773" type="priority" x="16939.90" y="4405.34" />
    <node id="2374441677" type="priority" x="16949.99" y="4434.15" />
    <node id="2374441740" type="priority" x="16963.78" y="4422.00" />
    <node id="2374441762" type="priority" x="16959.69" y="4407.60" />
    <node id="2382119055" type="priority" x="11982.14" y="6214.76" />
    <node id="2382119050" type="priority" x="11969.81" y="6231.06" />
    <node id="1875918979" type="priority" x="7724.63" y="10320.52" />
    <node id="2468520072" type="priority" x="7699.38" y="10349.87" />
    <node id="1875903916" type="priority" x="7748.67" y="10309.94" />
    <node id="cluster_2479532073_2479532084_2479532088" type="priority" x="12159.56" y="12977.43" />
    <node id="2479532068" type="priority" x="12128.79" y="13011.66" />
    <node id="4014594306" type="priority" x="4711.07" y="8453.98" />
    <node id="261617143" type="priority" x="4310.06" y="8267.85" />
    <node id="261703163" type="priority" x="5761.10" y="7218.29" />
    <node id="261702965" type="priority" x="5750.52" y="7203.50" />
    <node id="261703016" type="priority" x="5791.90" y="7261.38" />
    <node id="261703150" type="priority" x="5817.12" y="7296.65" />
    <node id="cluster_261703007_261703147" type="priority" x="5867.39" y="7366.97" />
    <node id="261703116" type="priority" x="5891.72" y="7400.98" />
    <node id="4170734331" type="priority" x="6080.13" y="7110.00" />
    <node id="261703126" type="priority" x="5934.29" y="7370.67" />
    <node id="261703118" type="priority" x="6141.65" y="7222.53" />
    <node id="4170734310" type="priority" x="6174.42" y="7203.09" />
    <node id="cluster_261836186_261836188" type="priority" x="10119.88" y="6600.53" />
    <node id="261836184" type="priority" x="10358.99" y="6313.27" />
    <node id="261836191" type="priority" x="9595.62" y="7225.38" />
    <node id="261836341" type="priority" x="9852.38" y="6917.51" />
    <node id="261836331" type="priority" x="9862.96" y="6903.85" />
    <node id="1462158984" type="priority" x="10131.97" y="8220.29" />
    <node id="1280192675" type="priority" x="9901.64" y="8487.20" />
    <node id="2147468627" type="priority" x="10190.52" y="8136.65" />
    <node id="1878834916" type="priority" x="10251.91" y="8066.09" />
    <node id="261963645" type="priority" x="10365.01" y="7931.32" />
    <node id="262028448" type="priority" x="9325.53" y="4060.18" />
    <node id="262028379" type="priority" x="9301.62" y="3998.41" />
    <node id="262028443" type="priority" x="9364.84" y="4161.75" />
    <node id="1067914047" type="priority" x="9430.04" y="4330.27" />
    <node id="262028366" type="priority" x="9443.93" y="4369.73" />
    <node id="262111032" type="priority" x="9000.79" y="8236.33" />
    <node id="262111022" type="priority" x="8947.25" y="8193.46" />
    <node id="262111092" type="priority" x="9065.37" y="8291.15" />
    <node id="262111024" type="priority" x="9106.58" y="8324.44" />
    <node id="262111023" type="priority" x="9222.68" y="8425.17" />
    <node id="262191307" type="priority" x="9860.41" y="9711.57" />
    <node id="262191305" type="priority" x="9821.84" y="9763.69" />
    <node id="262629460" type="priority" x="16345.82" y="2781.61" />
    <node id="262629464" type="priority" x="16569.19" y="3227.49" />
    <node id="2503219688" type="priority" x="12783.56" y="11417.07" />
    <node id="2503219686" type="priority" x="12756.90" y="11399.23" />
    <node id="3997552264" type="priority" x="14819.54" y="2857.36" />
    <node id="263008668" tl="GS_263008668" type="traffic_light" x="14813.05" y="2824.13" />
    <node id="3997543194" type="priority" x="14893.06" y="3226.47" />
    <node id="1819668848" type="priority" x="14619.20" y="5314.99" />
    <node id="263009848" type="priority" x="14599.80" y="5334.21" />
    <node id="263016333" type="priority" x="10916.74" y="4199.62" />
    <node id="263016331" type="priority" x="10852.71" y="4117.61" />
    <node id="cluster_263017478_263017520" type="priority" x="10325.27" y="5476.53" />
    <node id="263017477" type="priority" x="10399.72" y="5389.45" />
    <node id="263051963" type="priority" x="11752.05" y="6811.12" />
    <node id="3006821838" type="priority" x="11705.72" y="6873.22" />
    <node id="263051943" type="priority" x="11801.28" y="6749.62" />
    <node id="263051953" type="priority" x="11802.62" y="6723.10" />
    <node id="263051955" type="priority" x="11814.00" y="6700.80" />
    <node id="263051956" type="priority" x="12068.29" y="6320.47" />
    <node id="263051928" type="priority" x="12068.37" y="6291.32" />
    <node id="1791243448" type="priority" x="11116.78" y="11206.44" />
    <node id="1848186898" type="priority" x="11096.92" y="11208.65" />
    <node id="cluster_cluster_1791243445_2008259418_3343193721_3343193724_cluster_1791244264_2629924804_2629924860_2810578814" tl="gneJ36" type="traffic_light" x="11212.24" y="11179.18" />
    <node id="gneJ200" type="priority" x="11159.70" y="11200.57" />
    <node id="2629924822" type="priority" x="11260.44" y="11183.87" />
    <node id="-243197772#5-AddedOffRampNode" type="priority" x="11357.37" y="11167.90" />
    <node id="cluster_1791243436_1791243443_942404746_942404760" tl="cluster_1791243436_1791243443_942404746_942404760" type="traffic_light" x="11632.65" y="11113.21" />
    <node id="gneJ72" type="priority" x="11599.49" y="11129.67" />
    <node id="cluster_1496182097_1496182183" type="priority" x="11144.51" y="14874.26" />
    <node id="cluster_2517376267_2517376268" type="priority" x="11185.28" y="14820.61" />
    <node id="262191292" type="priority" x="9673.83" y="9653.33" />
    <node id="1878832555" type="priority" x="9609.58" y="9607.59" />
    <node id="262191304" type="priority" x="9843.75" y="9780.21" />
    <node id="262191269" type="priority" x="10000.87" y="9897.19" />
    <node id="1880519455" tl="1880519455" type="traffic_light" x="4047.40" y="7629.62" />
    <node id="261615714" type="priority" x="3925.76" y="7801.75" />
    <node id="1497205624" type="priority" x="9621.42" y="9326.83" />
    <node id="2664771581" type="priority" x="9687.06" y="9377.19" />
    <node id="1845017082" type="priority" x="9568.83" y="9289.91" />
    <node id="1497205622" type="priority" x="9528.24" y="9259.14" />
    <node id="1497205616" type="priority" x="9436.31" y="9192.11" />
    <node id="1956446068" type="priority" x="9345.14" y="9124.23" />
    <node id="1845017084" type="priority" x="9276.99" y="9073.43" />
    <node id="1956446067" type="priority" x="9241.11" y="9045.90" />
    <node id="1956446060" type="priority" x="9180.12" y="9000.19" />
    <node id="cluster_1845019556_299386833" type="priority" x="9157.48" y="8983.45" />
    <node id="cluster_261711294_2710723223" type="priority" x="6900.38" y="7845.72" />
    <node id="2710723221" type="priority" x="6902.96" y="7877.02" />
    <node id="288372693" type="priority" x="8214.95" y="15221.24" />
    <node id="288372692" type="priority" x="8014.74" y="15201.21" />
    <node id="2864413394" type="priority" x="6560.90" y="6910.50" />
    <node id="3010725642" type="priority" x="6303.74" y="6996.45" />
    <node id="2210137563" type="priority" x="10029.73" y="12914.89" />
    <node id="1799687106" type="priority" x="10397.58" y="12600.81" />
    <node id="3178411789" type="priority" x="9882.80" y="8499.31" />
    <node id="3178411788" type="priority" x="9860.44" y="8525.39" />
    <node id="cluster_3344558196_3344558199_3344558200" type="priority" x="12110.08" y="10911.75" />
    <node id="3344558195" type="priority" x="12166.80" y="11004.03" />
    <node id="3469341510" type="priority" x="8892.77" y="10829.60" />
    <node id="3469341509" type="priority" x="8901.92" y="10817.80" />
    <node id="3971126857" type="priority" x="17360.63" y="4984.17" />
    <node id="3971055462" type="priority" x="17386.01" y="4902.26" />
    <node id="3671718263" type="unregulated" x="10938.45" y="12298.70" />
    <node id="cluster_1797089510_3671718265" type="priority" x="10714.35" y="12317.97" />
    <node id="gneJ174" type="priority" x="10732.12" y="12297.61" />
    <node id="2210242278" type="unregulated" x="10934.86" y="12268.37" />
    <node id="261668377" type="priority" x="16052.49" y="2434.89" />
    <node id="3799686417" type="priority" x="15723.89" y="2545.13" />
    <node id="cluster_2139273902_3851389185" type="priority" x="17732.11" y="2434.13" />
    <node id="3868824657" type="priority" x="17620.52" y="2454.25" />
    <node id="1715801144" type="priority" x="17792.97" y="3726.50" />
    <node id="3955447321" type="priority" x="18652.05" y="3024.84" />
    <node id="1715801158" type="priority" x="17821.68" y="3771.26" />
    <node id="3955624380" type="priority" x="17968.39" y="3930.77" />
    <node id="3961620486" type="priority" x="17776.36" y="4515.20" />
    <node id="cluster_1813347530_3961100106" type="priority" x="17549.81" y="4715.07" />
    <node id="2374441788" type="priority" x="17304.07" y="4830.54" />
    <node id="2374441733" type="priority" x="17326.13" y="4855.24" />
    <node id="cluster_3961068809_3961077929_3961077930" type="priority" x="17951.10" y="4354.99" />
    <node id="3961107760" type="priority" x="18010.35" y="4182.25" />
    <node id="cluster_3961107061_3961107062_3961107757_3961107761" type="priority" x="17991.07" y="4136.85" />
    <node id="cluster_3961107764_3961113747_3961113748_3961113749" type="priority" x="17994.36" y="4085.74" />
    <node id="3958242865" type="priority" x="17978.44" y="4028.78" />
    <node id="1740263472" type="priority" x="17493.41" y="4952.95" />
    <node id="3971009888" type="priority" x="17475.15" y="4968.45" />
    <node id="1813324325" type="priority" x="17468.02" y="4996.90" />
    <node id="3986725798" type="priority" x="16224.13" y="5132.92" />
    <node id="1736579715" type="priority" x="16367.25" y="4874.04" />
    <node id="1492984548" type="priority" x="14933.53" y="4369.55" />
    <node id="1492984543" type="priority" x="15106.29" y="4337.74" />
    <node id="1492984513" type="priority" x="15262.01" y="4309.08" />
    <node id="3976263544" type="priority" x="14445.74" y="4465.22" />
    <node id="2325763453" type="priority" x="14420.79" y="3965.66" />
    <node id="3976263545" tl="GS_3976263545" type="traffic_light" x="14381.73" y="4008.52" />
    <node id="2561069786" type="priority" x="16842.08" y="4487.41" />
    <node id="1715808255" type="priority" x="16766.66" y="4548.82" />
    <node id="3961831696" type="priority" x="16690.04" y="4611.21" />
    <node id="263008742" type="priority" x="15376.18" y="3478.51" />
    <node id="4001264895" type="priority" x="15522.83" y="3452.88" />
    <node id="1823291283" tl="GS_1823291283" type="traffic_light" x="14813.41" y="3576.86" />
    <node id="263008741" type="priority" x="14606.91" y="3612.95" />
    <node id="263008738" type="priority" x="14468.19" y="3637.19" />
    <node id="cluster_4004323999_4004324000_4004508658" type="priority" x="14282.29" y="3670.23" />
    <node id="3995322696" type="priority" x="15890.34" y="3388.69" />
    <node id="1826454255" type="priority" x="9072.00" y="12788.09" />
    <node id="4001910789" type="priority" x="9053.27" y="12798.92" />
    <node id="1803071708" type="priority" x="15914.43" y="3396.56" />
    <node controlledInner="-398649473 398649473" id="261821980" tl="joinedS_16" type="traffic_light" x="10200.43" y="5644.08" />
    <node controlledInner="-398649473 398649473" id="261822056" tl="joinedS_16" type="traffic_light" x="10181.61" y="5628.60" />
    <node id="261702975" type="priority" x="5927.92" y="7497.36" />
    <node id="4041673695" type="priority" x="14659.32" y="5666.86" />
    <node id="4041673696" type="priority" x="14639.28" y="5671.80" />
    <node id="261836323" type="priority" x="9997.85" y="6513.38" />
    <node id="261836329" type="priority" x="9749.73" y="6808.56" />
    <node id="3926882198" type="priority" x="9640.93" y="6938.00" />
    <node id="4061284513" type="priority" x="9493.20" y="7114.08" />
    <node id="3926882193" type="priority" x="9657.40" y="6918.42" />
    <node id="261836344" type="priority" x="9738.01" y="6822.51" />
    <node id="262191341" type="priority" x="9691.71" y="10313.78" />
    <node id="4095211702" type="priority" x="9597.78" y="10437.81" />
    <node id="262191285" type="priority" x="9798.27" y="10170.34" />
    <node id="262191289" type="priority" x="9707.68" y="9607.66" />
    <node id="262191313" type="priority" x="9573.60" y="9789.85" />
    <node id="262191293" type="priority" x="9473.68" y="9928.39" />
    <node id="262191315" type="priority" x="9900.20" y="10034.77" />
    <node id="262191370" type="priority" x="9973.61" y="9935.34" />
    <node id="262191372" type="priority" x="10020.90" y="9874.66" />
    <node id="4143369734" type="priority" x="7817.61" y="10358.59" />
    <node id="3246948220" type="priority" x="10741.68" y="4187.49" />
    <node id="3246948227" type="priority" x="10785.93" y="4243.39" />
    <node id="261669710" type="priority" x="4471.24" y="7567.51" />
    <node id="261703209" type="priority" x="4866.65" y="7940.53" />
    <node id="1027695860" type="priority" x="7049.96" y="11070.72" />
    <node id="2137519449" type="priority" x="6832.45" y="10947.99" />
    <node id="290279560" type="priority" x="7068.67" y="11079.35" />
    <node id="cluster_1166248748_2638367278" type="priority" x="9897.08" y="9620.43" />
    <node id="gneJ274" type="priority" x="9889.62" y="9632.45" />
    <node id="1026714971" type="priority" x="7588.17" y="11682.58" />
    <node id="1026714706" type="priority" x="7750.20" y="11798.79" />
    <node id="1026714899" type="priority" x="7831.48" y="11855.75" />
    <node id="1026714738" type="priority" x="8071.20" y="11955.22" />
    <node id="100596053#3-AddedOffRampNode" type="priority" x="8269.74" y="11974.05" />
    <node id="3350100170" type="priority" x="8368.63" y="11960.15" />
    <node id="1835067185" type="priority" x="8424.94" y="11946.53" />
    <node id="100596053#6-AddedOffRampNode" type="priority" x="8712.19" y="11723.58" />
    <node id="2927613057" type="priority" x="8774.36" y="11645.26" />
    <node id="cluster_1835067182_1835067190" type="priority" x="8795.33" y="11615.80" />
    <node id="1163010332" type="priority" x="8433.61" y="10922.13" />
    <node id="1163010482" tl="GS_1163010482" type="traffic_light" x="8479.97" y="10915.92" />
    <node id="2360583310" tl="2360583310" type="traffic_light" x="10225.02" y="9792.57" />
    <node id="4089204170" tl="4089204170" type="traffic_light" x="10200.57" y="9839.32" />
    <node id="1462171780" type="priority" x="10177.37" y="9877.17" />
    <node id="1845029219" type="priority" x="10150.70" y="9922.27" />
    <node id="1845041060" type="priority" x="10050.87" y="10055.97" />
    <node id="100596086#4-AddedOnRampNode" type="priority" x="9990.37" y="10135.54" />
    <node id="1463602387" type="priority" x="9664.40" y="10505.46" />
    <node id="cluster_1636594547_261671526" tl="cluster_1636594547_261671526" type="traffic_light" x="9628.59" y="10548.22" />
    <node id="1166168432" type="priority" x="11218.36" y="6442.04" />
    <node id="1166168462" tl="GS_1166168462" type="traffic_light" x="11214.92" y="6491.78" />
    <node id="1166168473" type="priority" x="11047.81" y="6359.21" />
    <node id="1166168519" type="priority" x="11002.06" y="6418.27" />
    <node id="1166168502" type="priority" x="11084.86" y="6548.44" />
    <node id="1166168480" tl="GS_1166168480" type="traffic_light" x="11087.24" y="6491.06" />
    <node id="1166168382" type="priority" x="11261.68" y="6631.12" />
    <node id="1166168518" type="priority" x="11309.79" y="6568.73" />
    <node id="1166168377" type="priority" x="11095.07" y="6397.73" />
    <node id="4018353934" type="priority" x="11138.51" y="6532.65" />
    <node id="1166168524" type="priority" x="9725.21" y="7265.52" />
    <node id="1166168323" type="priority" x="9722.99" y="7326.71" />
    <node id="1166168492" type="priority" x="11137.91" y="6428.10" />
    <node id="1166168470" tl="GS_1166168470" type="traffic_light" x="11192.38" y="6419.01" />
    <node id="1166168394" type="priority" x="11280.18" y="6364.97" />
    <node id="1166168344" type="priority" x="11048.42" y="6458.46" />
    <node id="cluster_1166168322_1166168526" type="priority" x="11182.98" y="6568.92" />
    <node id="1166168346" tl="GS_1166168346" type="traffic_light" x="11119.66" y="6558.16" />
    <node id="261668921" type="priority" x="11166.41" y="6451.44" />
    <node id="1845037572" type="priority" x="9731.50" y="9450.47" />
    <node id="cluster_1807153980_1845037581_1845037596" type="priority" x="9711.38" y="9479.16" />
    <node id="2664771583" type="priority" x="9679.06" y="9506.26" />
    <node id="cluster_cluster_4041737416_4086827006_cluster_cluster_1845037600_262189091_cluster_262189092_3926882175" tl="gneJ281" type="traffic_light" x="9637.75" y="9540.18" />
    <node id="1845037592" type="priority" x="9664.05" y="9501.35" />
    <node id="gneJ275" type="unregulated" x="9717.58" y="9443.35" />
    <node id="292185814" tl="292185814" type="traffic_light" x="7022.94" y="10668.21" />
    <node id="2551331583" type="priority" x="7014.80" y="10680.27" />
    <node id="287404398" type="priority" x="7004.13" y="10697.27" />
    <node id="799283720" tl="799283720" type="traffic_light" x="6752.54" y="11046.82" />
    <node id="799283791" type="priority" x="6724.93" y="11053.71" />
    <node id="1362815382" type="priority" x="6917.98" y="10824.49" />
    <node id="3006130340" type="priority" x="6895.11" y="10858.47" />
    <node id="799283750" type="priority" x="6778.67" y="11016.65" />
    <node id="261675057" type="priority" x="8590.06" y="4256.86" />
    <node controlledInner="103264089#1 168757037#0" id="cluster_2087659003_2136999530_4236981318" tl="joinedS_3" type="traffic_light" x="8531.72" y="4274.99" />
    <node controlledInner="103264089#1 168757037#0" id="cluster_261675038_261675058" tl="joinedS_3" type="traffic_light" x="8503.47" y="4297.76" />
    <node id="262110306" type="priority" x="9744.74" y="8294.36" />
    <node id="1229142786" type="priority" x="9756.94" y="8360.46" />
    <node id="108742238#1-AddedOnRampNode" type="priority" x="10488.49" y="9277.25" />
    <node id="2364145328" type="priority" x="10212.79" y="9752.74" />
    <node id="2089502257" type="priority" x="10539.69" y="9191.35" />
    <node id="1256610732" type="priority" x="8054.95" y="8215.02" />
    <node id="1256610748" type="priority" x="8055.71" y="8254.65" />
    <node id="1268402897" type="priority" x="6046.14" y="7613.25" />
    <node id="1268402925" type="priority" x="6040.20" y="7665.89" />
    <node id="1268402934" type="priority" x="5985.49" y="7605.37" />
    <node id="1268402948" type="priority" x="6036.72" y="7600.27" />
    <node id="1268402909" type="priority" x="5969.58" y="7679.65" />
    <node id="1268402937" type="priority" x="5978.96" y="7627.57" />
    <node id="1268402945" type="priority" x="6036.96" y="7686.18" />
    <node id="1268402931" type="priority" x="5987.66" y="7681.89" />
    <node id="1280192678" type="priority" x="10742.75" y="8894.23" />
    <node id="1791263106" type="priority" x="10799.10" y="8892.97" />
    <node id="1280192681" type="priority" x="10347.81" y="8873.91" />
    <node id="3474634835" type="priority" x="10057.46" y="8649.23" />
    <node id="1807153816" type="priority" x="9959.18" y="8565.44" />
    <node id="112672265#3-AddedOffRampNode" type="priority" x="9821.85" y="8446.75" />
    <node id="2638353666" type="priority" x="9746.12" y="8381.45" />
    <node id="cluster_261674734_261674789" tl="cluster_261674734_261674789" type="traffic_light" x="9709.93" y="8335.95" />
    <node id="1791263110" type="priority" x="10604.01" y="8895.55" />
    <node id="1463588629" type="priority" x="10674.17" y="8849.12" />
    <node id="1636604782" type="priority" x="11068.80" y="8268.51" />
    <node id="112672267#0-AddedOffRampNode" type="priority" x="10815.66" y="8755.66" />
    <node id="1636604795" type="priority" x="10766.84" y="8842.94" />
    <node id="cluster_1791263114_1791263118_1791263121_2638411570_4089223431" type="priority" x="10726.20" y="8900.46" />
    <node id="3513921393" type="priority" x="13345.94" y="5764.21" />
    <node id="263051637" type="priority" x="13344.49" y="5641.82" />
    <node id="1415258669" type="priority" x="13116.07" y="5153.81" />
    <node id="1413146829" type="priority" x="13098.29" y="5114.62" />
    <node id="1848144289" type="priority" x="13072.93" y="5060.78" />
    <node id="263017709" type="priority" x="13059.68" y="5034.11" />
    <node id="263051638" type="priority" x="13312.06" y="5565.64" />
    <node id="263051646" type="priority" x="13285.70" y="5519.46" />
    <node id="263051645" type="priority" x="13233.76" y="5394.73" />
    <node id="263051679" type="priority" x="13217.28" y="5363.76" />
    <node id="112672695#8-AddedOffRampNode" type="priority" x="13189.52" y="5306.21" />
    <node id="4325548347" type="priority" x="13146.08" y="5216.14" />
    <node id="263011394" type="priority" x="13597.80" y="4794.66" />
    <node id="263011395" type="priority" x="13586.63" y="4764.79" />
    <node id="1320235607" type="priority" x="12167.49" y="5498.38" />
    <node id="1320235695" tl="GS_1320235695" type="traffic_light" x="12100.36" y="5479.81" />
    <node id="1320236137" type="priority" x="15311.09" y="4376.17" />
    <node controlledInner="394150582#7 394156634#20" id="cluster_1320236035_262644590_262644597_4016669294" tl="joinedS_22" type="traffic_light" x="15321.21" y="4405.33" />
    <node id="1320235777" type="priority" x="12202.54" y="5425.84" />
    <node id="1320235679" tl="GS_1320235679" type="traffic_light" x="12174.45" y="5484.84" />
    <node id="1320235549" type="priority" x="12118.92" y="5365.99" />