<?xml version='1.0' encoding='UTF-8'?>
<edges xmlns:xsi="http://www.w3.org/2001/XMLSchema-instance" version="0.27" xsi:noNamespaceSchemaLocation="http://sumo.dlr.de/xsd/edges_file.xsd"><edge disallow="tram rail_urban rail rail_electric ship" from="2517376273" id="-118679933#1" numLanes="1" priority="6" shape="11268.16,14743.20 11323.02,14672.85 11354.17,14636.60 11376.24,14609.12 11422.29,14540.00 11447.25,14489.73 11455.90,14444.91 11459.52,14407.92 11460.46,14366.69 11454.47,14323.86 11443.35,14282.86 11427.00,14240.23 11396.03,14187.17" speed="22.22" to="1329910359" type="highway.tertiary" />
    <edge disallow="tram rail_urban rail rail_electric ship" from="1492984522" id="-136050628" numLanes="2" priority="7" speed="27.78" to="1492984511" type="highway.secondary" />
    <edge disallow="tram rail_urban rail rail_electric ship" from="cluster_1715808203_1715808242_1715808253" id="-159461861" numLanes="1" priority="5" shape="18265.08,3367.41 18276.79,3382.22 18288.00,3377.81" speed="22.22" to="1715808226" type="highway.tertiary_link" />
    <edge disallow="tram rail_urban rail rail_electric ship" from="1726515058" id="-160600920#1" numLanes="1" priority="4" shape="16071.64,3320.29 16074.09,3326.59 16094.00,3377.72" speed="16.67" to="1726515104" type="highway.residential" />
    <edge disallow="tram rail_urban rail rail_electric ship" from="262629494" id="-160600920#4" numLanes="1" priority="4" shape="15988.17,3105.94 16060.78,3292.39 16069.70,3315.28 16071.64,3320.29" speed="16.67" to="1726515058" type="highway.residential" />
    <edge disallow="tram rail_urban rail rail_electric ship" from="1726514944" id="-160600920#6" numLanes="1" priority="4" shape="15917.93,2925.56 15926.65,2947.96 15988.17,3105.94" speed="16.67" to="262629494" type="highway.residential" />
    <edge disallow="tram rail_urban rail rail_electric ship" from="1726515052" id="-160600922#0" numLanes="1" priority="4" speed="16.67" to="1726515058" type="highway.residential" />
    <edge disallow="tram rail_urban rail rail_electric ship" from="1726515051" id="-160600922#3" numLanes="1" priority="4" shape="16359.86,3207.95 16287.13,3236.30 16282.19,3238.23 16173.54,3280.59" speed="16.67" to="1726515052" type="highway.residential" />
    <edge disallow="tram rail_urban rail rail_electric ship" from="262629482" id="-160600922#6" numLanes="1" priority="4" shape="16526.81,3142.89 16419.05,3184.90 16411.32,3187.91 16359.86,3207.95" speed="16.67" to="1726515051" type="highway.residential" />
    <edge disallow="tram rail_urban rail rail_electric ship" from="1726515052" id="-160600925#1" numLanes="1" priority="4" shape="16173.54,3280.59 16193.61,3331.95 16205.31,3361.86" speed="16.67" to="cluster_1726515078_1726515098_1726515102" type="highway.residential" />
    <edge disallow="tram rail_urban rail rail_electric ship" from="1726514904" id="-160600925#6" numLanes="1" priority="4" shape="16011.49,2866.00 16028.19,2908.74 16082.35,3047.29 16112.90,3125.45 16137.45,3188.26 16173.54,3280.59" speed="16.67" to="1726515052" type="highway.residential" />
    <edge disallow="tram rail_urban rail rail_electric ship" from="1791246568" id="-167730289#0" numLanes="1" priority="1" shape="13148.44,9796.87 13081.49,9752.91 13026.14,9701.23 12995.45,9684.73 12962.94,9695.89 12932.21,9729.01 12922.20,9751.59" speed="16.67" to="2008259367" type="highway.track" />
    <edge disallow="tram rail_urban rail rail_electric ship" from="2503228163" id="-167730289#3.0" numLanes="1" priority="1" shape="12784.42,11162.44 12807.92,11142.16 12858.72,11116.33 12900.31,11078.62 12956.73,10996.94 12966.12,10976.12 12984.35,10916.66 13002.94,10875.05 13047.87,10838.00 13052.97,10815.00 13038.41,10775.85 13011.46,10739.69 12997.40,10677.62 13001.03,10576.25 13017.19,10553.04 13045.45,10536.00 13179.55,10510.12 13348.81,10491.37 13400.35,10486.74 13413.89,10471.82 13410.45,10386.17 13405.87,10360.16" speed="16.67" to="cluster_cluster_gneJ218_gneJ219_gneJ220_gneJ221" type="highway.track" />
    <edge disallow="tram rail_urban rail rail_electric ship" from="cluster_cluster_gneJ218_gneJ219_gneJ220_gneJ221" id="-167730289#3.1259" numLanes="1" priority="1" shape="13405.87,10360.16 13399.10,10321.75 13402.16,10238.74 13400.08,10176.44 13373.86,10105.42 13354.92,10053.98 13360.62,10013.55 13373.77,9878.54 13371.34,9847.42 13354.72,9821.14 13306.92,9778.95 13256.69,9779.42 13195.25,9797.54 13148.44,9796.87" speed="16.67" to="1791246568" type="highway.track" />
    <edge disallow="tram rail_urban rail rail_electric ship" from="1799687501" id="-168751775" numLanes="1" priority="6" shape="10624.41,12679.21 10611.83,12604.89 10594.02,12526.23" speed="22.22" to="1799687294" type="highway.tertiary" />
    <edge disallow="tram rail_urban rail rail_electric ship" from="1799687294" id="-168751790#0" numLanes="1" priority="6" shape="10594.02,12526.23 10563.55,12382.36 10561.43,12368.43" speed="22.22" to="1799687408" type="highway.tertiary" />
    <edge disallow="tram rail_urban rail rail_electric ship" from="1799687181" id="-168751790#1" numLanes="1" priority="6" shape="10405.20,12589.70 10403.11,12581.74 10404.56,12573.74 10419.97,12557.12 10508.33,12540.30 10594.02,12526.23" speed="22.22" to="1799687294" type="highway.tertiary" />
    <edge disallow="tram rail_urban rail rail_electric ship" from="cluster_3976263540_3976263541" id="-169119625#2" numLanes="1" priority="5" shape="14728.90,4406.70 14579.69,4430.75 14480.47,4446.73 14464.04,4449.93" speed="16.67" to="1802871258" type="highway.unclassified" />
    <edge disallow="tram rail_urban rail rail_electric ship" from="cluster_1812118929_261703300" id="-170060658#1" numLanes="1" priority="6" shape="5347.91,7572.52 5352.32,7564.79 5353.16,7558.72 5351.32,7551.95 5347.62,7547.29 5338.63,7545.00 5327.40,7547.44" speed="22.22" to="261703228" type="highway.tertiary" />
    <edge disallow="tram rail_urban rail rail_electric ship" from="1813324323" id="-170176150" numLanes="1" priority="5" shape="17425.11,4972.52 17394.28,4965.97" speed="22.22" to="1813324329" type="highway.tertiary_link" />
    <edge disallow="tram rail_urban rail rail_electric ship" from="1813823450" id="-170226320#2" numLanes="4" priority="9" shape="9513.43,11800.86 9507.42,11812.57 9480.28,11856.52 9475.26,11870.14" speed="27.78" spreadType="center" to="1813825074" type="highway.primary" />
    <edge disallow="tram rail_urban rail rail_electric ship" from="1815463678" id="-170404479" numLanes="1" priority="8" speed="22.22" spreadType="center" to="1636594599" type="highway.primary_link" />
    <edge disallow="tram rail_urban rail rail_electric ship" from="3951635651" id="-170405735#1" numLanes="1" priority="6" shape="17552.39,3130.40 17570.05,3131.85 17587.73,3130.72 17599.08,3126.44 17610.52,3120.51 17661.83,3079.34" speed="22.22" to="1815468816" type="highway.tertiary" />
    <edge disallow="tram rail_urban rail rail_electric ship" from="1815471168" id="-170405842" numLanes="1" priority="6" shape="18148.86,2863.27 18141.93,2865.59 18112.00,2895.37 18071.97,2923.98 18039.84,2938.65 17976.64,2965.25 17946.19,2984.21 17792.43,3104.22 17782.67,3111.06" speed="22.22" to="-170405842-AddedOffRampNode" type="highway.tertiary" />
    <edge disallow="tram rail_urban rail rail_electric ship" from="-170405842-AddedOffRampNode" id="-170405842-AddedOffRampEdge" numLanes="2" priority="6" shape="17782.67,3111.06 17774.15,3117.02 17757.99,3120.89 17742.06,3120.51 17727.13,3115.23 17714.26,3103.55" speed="22.22" to="1815468819" type="highway.tertiary" />
    <edge disallow="tram rail_urban rail rail_electric ship" from="1845029925" id="-173739123#0" numLanes="4" priority="9" shape="10480.24,9940.20 10430.16,9918.56 10355.46,9886.47 10227.66,9832.60" speed="16.67" spreadType="center" to="gneJ9" type="highway.primary" />
    <edge disallow="tram rail_urban rail rail_electric ship" from="1947346442" id="-173739123#1" numLanes="5" priority="9" shape="10689.54,10031.51 10613.54,9998.48 10480.24,9940.20" speed="16.67" spreadType="center" to="1845029925" type="highway.primary" />
    <edge disallow="tram rail_urban rail rail_electric ship" from="2085347316" id="-182526863#0" numLanes="1" priority="4" speed="16.67" to="1928871725" type="highway.residential" />
    <edge disallow="tram rail_urban rail rail_electric ship" from="1928871729" id="-182526863#1" numLanes="1" priority="4" speed="16.67" to="2085347316" type="highway.residential" />
    <edge disallow="tram rail_urban rail rail_electric ship" from="2409499740" id="-198402717#0" numLanes="1" priority="4" speed="16.67" to="2409499736" type="highway.residential" />
    <edge disallow="tram rail_urban rail rail_electric ship" from="2371668306" id="-198402717#1" numLanes="1" priority="4" speed="16.67" to="2409499740" type="highway.residential" />
    <edge disallow="tram rail_urban rail rail_electric ship" from="2409503104" id="-198402717#3" numLanes="1" priority="4" shape="9516.73,11153.09 9448.02,11101.80 9430.50,11088.72" speed="16.67" to="2371668306" type="highway.residential" />
    <edge disallow="tram rail_urban rail rail_electric ship" from="2371668255" id="-198402717#4" numLanes="1" priority="4" speed="16.67" to="2409503104" type="highway.residential" />
    <edge disallow="tram rail_urban rail rail_electric ship" from="2085347314" id="-198402717#5" numLanes="1" priority="4" speed="16.67" to="2371668255" type="highway.residential" />
    <edge disallow="tram rail_urban rail rail_electric ship" from="1928871725" id="-198402717#6" numLanes="1" priority="4" speed="16.67" to="2085347314" type="highway.residential" />
    <edge disallow="tram rail_urban rail rail_electric ship" from="2085347322" id="-198402717#7" numLanes="1" priority="4" speed="16.67" to="1928871725" type="highway.residential" />
    <edge disallow="tram rail_urban rail rail_electric ship" from="2085347320" id="-198402718#0" numLanes="1" priority="4" speed="16.67" to="2409499711" type="highway.residential" />
    <edge disallow="tram rail_urban rail rail_electric ship" from="2409503054" id="-198402718#1" numLanes="1" priority="4" speed="16.67" to="2085347320" type="highway.residential" />
    <edge disallow="tram rail_urban rail rail_electric ship" from="2371668279" id="-198402718#2" numLanes="1" priority="4" speed="16.67" to="2409503054" type="highway.residential" />
    <edge disallow="tram rail_urban rail rail_electric ship" from="2085347318" id="-198402718#3" numLanes="1" priority="4" speed="16.67" to="2371668279" type="highway.residential" />
    <edge disallow="tram rail_urban rail rail_electric ship" from="2371668300" id="-198402718#4" numLanes="1" priority="4" speed="16.67" to="2085347318" type="highway.residential" />
    <edge disallow="tram rail_urban rail rail_electric ship" from="1928871732" id="-198402718#6" numLanes="1" priority="4" shape="9786.33,11191.24 9783.95,11189.44 9752.22,11165.49" speed="16.67" to="2371668300" type="highway.residential" />
    <edge disallow="tram rail_urban rail rail_electric ship" from="3853643009" id="-201178024#1" numLanes="1" priority="6" shape="17310.52,3126.38 17302.41,3142.44 17306.21,3161.75" speed="22.22" to="2111285370" type="highway.tertiary" />
    <edge disallow="tram rail_urban rail rail_electric ship" from="3853650951" id="-201178029#1" numLanes="1" priority="6" shape="17232.31,3148.36 17238.57,3128.85 17234.06,3109.87" speed="22.22" to="2111285361" type="highway.tertiary" />
    <edge disallow="tram rail_urban rail rail_electric ship" from="1067889676" id="-205434716" numLanes="2" priority="9" speed="27.78" spreadType="center" to="2154079957" type="highway.primary" />
    <edge disallow="tram rail_urban rail rail_electric ship" from="3087263322" id="-210994726" numLanes="1" priority="6" shape="9928.75,12954.60 9968.11,12953.44 9977.83,12952.05 9987.92,12948.63 9998.77,12943.41 10016.30,12936.49 10022.99,12933.64" speed="22.22" to="2210137576" type="highway.tertiary" />
    <edge disallow="tram rail_urban rail rail_electric ship" from="2210230374" id="-211002912" numLanes="1" priority="6" shape="10621.60,12693.46 10568.06,12699.82 10533.38,12704.44 10503.56,12709.88 10472.06,12715.70 10455.13,12716.43 10444.34,12714.24 10436.63,12709.52 10428.81,12701.37 10424.75,12687.92 10423.38,12673.34 10418.27,12632.86 10406.57,12609.77" speed="22.22" to="1803678891" type="highway.tertiary" />
    <edge disallow="tram rail_urban rail rail_electric ship" from="2323788954" id="-223479614" numLanes="1" priority="8" shape="9292.76,11592.71 9288.82,11585.97 9282.30,11586.09 9277.42,11587.00 9269.96,11590.70" speed="22.22" to="1067889528" type="highway.primary_link" />
    <edge disallow="tram rail_urban rail rail_electric ship" from="1067889528" id="-223479615" numLanes="1" priority="8" shape="9269.96,11590.70 9270.89,11587.12 9271.90,11583.04 9271.54,11577.64 9269.79,11571.98 9262.57,11570.54" speed="22.22" to="2323788955" type="highway.primary_link" />
    <edge disallow="tram rail_urban rail rail_electric ship" from="261615129" id="-225764864" numLanes="1" priority="8" shape="3714.65,8089.58 3711.81,8074.63 3750.71,8013.94 3753.82,7995.69 3747.38,7976.59 3704.92,7938.35 3704.21,7923.03" speed="22.22" spreadType="center" to="2345185435" type="highway.primary_link" />
    <edge disallow="tram rail_urban rail rail_electric ship" from="4014928949" id="-227103756#1" numLanes="3" priority="9" shape="12161.75,10236.51 12134.27,10225.59" speed="27.78" spreadType="center" to="cluster_cluster_2358329523_4014927757_cluster_2358329559_4014927758" type="highway.primary" />
    <edge disallow="tram rail_urban rail rail_electric ship" from="-227103756#2-AddedOffRampNode" id="-227103756#2-AddedOffRampEdge" numLanes="3" priority="9" shape="12253.07,10273.92 12229.41,10264.25 12161.75,10236.51" speed="27.78" spreadType="center" to="4014928949" type="highway.primary" />
    <edge disallow="tram rail_urban rail rail_electric ship" from="cluster_1791246604_1791246605_2008259378_2008259379" id="-227103756#2.0" numLanes="3" priority="9" shape="12367.09,10338.89 12351.28,10329.30" speed="27.78" spreadType="center" to="gneJ49" type="highway.primary" />
    <edge disallow="tram rail_urban rail rail_electric ship" from="gneJ49" id="-227103756#2.17" numLanes="3" priority="9" shape="12351.28,10329.30 12328.53,10312.98 12290.98,10290.83 12253.07,10273.92" speed="27.78" spreadType="center" to="-227103756#2-AddedOffRampNode" type="highway.primary" />
    <edge disallow="tram rail_urban rail rail_electric ship" from="2358329505" id="-227103764" numLanes="1" priority="6" shape="14629.29,5642.77 14613.47,5635.66" speed="22.22" to="cluster_2358329460_4083474287" type="highway.secondary_link" />
    <edge disallow="tram rail_urban rail rail_electric ship" from="2358468798" id="-227118875" numLanes="1" priority="8" shape="7986.81,10511.95 7990.68,10490.09 7986.32,10481.00" speed="22.22" to="2358468823" type="highway.primary_link" />
    <edge disallow="tram rail_urban rail rail_electric ship" from="263051572" id="-227300451" numLanes="1" priority="6" shape="13361.27,5635.97 13360.93,5646.93 13380.03,5689.56 13379.57,5693.90 13375.80,5696.14 13372.51,5695.11 13366.75,5692.22" speed="22.22" to="2360072084" type="highway.secondary_link" />
    <edge disallow="tram rail_urban rail rail_electric bicycle pedestrian ship" from="2360583352" id="-227359894" numLanes="2" priority="10" shape="10686.17,8957.40 10676.03,8975.95 10631.88,9064.69 10629.46,9069.68 10574.27,9183.47 10548.70,9235.39 10516.21,9287.42 10456.53,9398.29" speed="22.22" spreadType="center" to="1636604844" type="highway.trunk_link" />
    <edge disallow="tram rail_urban rail rail_electric bicycle pedestrian ship" from="3025256565" id="-227359906" numLanes="2" priority="10" shape="10708.65,8922.43 10693.02,8938.57 10686.17,8957.40" speed="22.22" to="2360583352" type="highway.trunk_link" />
    <edge disallow="tram rail_urban rail rail_electric ship" from="2361777081" id="-227507893" numLanes="1" priority="8" shape="9247.16,11043.04 9242.62,11054.12 9243.38,11059.00 9245.56,11063.87 9255.80,11071.47" speed="22.22" to="2361777075" type="highway.primary_link" />
    <edge disallow="tram rail_urban rail rail_electric bicycle pedestrian ship" from="1462167256" id="-227751886" numLanes="3" priority="10" shape="10360.53,9426.67 10386.13,9399.12 10406.44,9372.97" speed="22.22" spreadType="center" to="2364145344" type="highway.trunk_link" />
    <edge disallow="tram rail_urban rail rail_electric ship" from="2371668308" id="-228490395" numLanes="1" priority="6" shape="9760.17,11088.87 9768.27,11074.49 9767.81,11065.02 9765.51,11061.01 9757.40,11059.09" speed="22.22" to="2371668260" type="highway.secondary_link" />
    <edge disallow="tram rail_urban rail rail_electric ship" from="2371668303" id="-228490397" numLanes="1" priority="6" shape="9787.89,11081.58 9777.38,11078.17 9770.40,11080.26 9760.17,11088.87" speed="22.22" to="2371668308" type="highway.secondary_link" />
    <edge disallow="tram rail_urban rail rail_electric ship" from="2374441771" id="-228767445" numLanes="1" priority="6" speed="22.22" to="2374441710" type="highway.tertiary" />
    <edge disallow="tram rail_urban rail rail_electric bicycle pedestrian ship" from="1813344736" id="-228767449" numLanes="1" priority="10" shape="17475.30,4907.84 17463.10,4912.26 17448.36,4919.58 17432.50,4922.72 17404.84,4923.36" speed="22.22" to="3971086813" type="highway.trunk_link" />
    <edge disallow="tram rail_urban rail rail_electric bicycle pedestrian ship" from="3619687527" id="-228767457#0" numLanes="1" priority="10" speed="22.22" to="3971055464" type="highway.trunk_link" />
    <edge disallow="tram rail_urban rail rail_electric bicycle pedestrian ship" from="3971086813" id="-228767457#1" numLanes="1" priority="10" speed="22.22" to="3619687527" type="highway.trunk_link" />
    <edge disallow="tram rail_urban rail rail_electric bicycle pedestrian ship" from="cluster_3961200217_3971086816" id="-228767458#0" numLanes="2" priority="10" shape="17369.32,4904.23 17337.09,4867.67" speed="16.67" to="2374441745" type="highway.trunk_link" />
    <edge disallow="tram rail_urban rail rail_electric bicycle pedestrian ship" from="3971055464" id="-228767458#1" numLanes="3" priority="10" shape="17376.60,4912.50 17369.32,4904.23" speed="16.67" to="cluster_3961200217_3971086816" type="highway.trunk_link" />
    <edge disallow="tram rail_urban rail rail_electric bicycle pedestrian ship" from="3971086815" id="-228767458#2" numLanes="2" priority="10" shape="17387.53,4924.89 17370.41,4917.95" speed="16.67" to="3971055464" type="highway.trunk_link" />
    <edge disallow="tram rail_urban rail rail_electric bicycle pedestrian ship" from="cluster_3971062821_3971073514_3971091607" id="-228767458#3" numLanes="2" priority="10" shape="17410.77,4951.25 17387.53,4924.89" speed="16.67" to="3971086815" type="highway.trunk_link" />
    <edge disallow="tram rail_urban rail rail_electric bicycle pedestrian ship" from="1813324334" id="-228767458#4" numLanes="2" priority="10" shape="17416.53,4957.79 17410.77,4951.25" speed="16.67" to="cluster_3971062821_3971073514_3971091607" type="highway.trunk_link" />
    <edge disallow="tram rail_urban rail rail_electric bicycle pedestrian ship" from="1813344262" id="-228767465" numLanes="1" priority="10" shape="17324.76,4935.45 17346.39,4909.92 17349.41,4904.05 17350.95,4898.88 17350.84,4892.92 17349.24,4887.13 17337.09,4867.67" speed="16.67" to="2374441745" type="highway.trunk_link" />
    <edge disallow="tram rail_urban rail rail_electric ship" from="2374441816" id="-228767466#0" numLanes="1" priority="6" shape="16933.27,4414.66 16933.42,4413.64 16935.95,4408.94 16939.90,4405.34" speed="16.67" to="2374441773" type="highway.tertiary" />
    <edge disallow="tram rail_urban rail rail_electric ship" from="2374441771" id="-228767466#1" numLanes="1" priority="6" shape="16939.34,4431.16 16936.40,4428.73 16933.67,4424.15 16932.63,4418.92 16933.27,4414.66" speed="16.67" to="2374441816" type="highway.tertiary" />
    <edge disallow="tram rail_urban rail rail_electric ship" from="2374441677" id="-228767466#2" numLanes="1" priority="6" shape="16949.99,4434.15 16945.10,4433.88 16940.52,4432.14 16939.34,4431.16" speed="16.67" to="2374441771" type="highway.tertiary" />
    <edge disallow="tram rail_urban rail rail_electric ship" from="2374441740" id="-228767466#3" numLanes="1" priority="6" shape="16963.78,4422.00 16961.96,4426.53 16958.84,4430.28 16954.72,4432.91 16949.99,4434.15" speed="16.67" to="2374441677" type="highway.tertiary" />
    <edge disallow="tram rail_urban rail rail_electric ship" from="2374441762" id="-228767466#4" numLanes="1" priority="6" shape="16959.69,4407.60 16962.72,4411.99 16964.10,4417.15 16963.78,4422.00" speed="16.67" to="2374441740" type="highway.tertiary" />
    <edge disallow="tram rail_urban rail rail_electric ship" from="2374441773" id="-228767466#5" numLanes="1" priority="6" shape="16939.90,4405.34 16944.84,4403.27 16950.19,4402.98 16955.35,4404.48 16959.69,4407.60" speed="16.67" to="2374441762" type="highway.tertiary" />
    <edge disallow="tram rail_urban rail rail_electric ship" from="2382119055" id="-229643969" numLanes="1" priority="6" speed="22.22" to="2382119050" type="highway.secondary_link" />
    <edge disallow="tram rail_urban rail rail_electric ship" from="1928871729" id="-229991408#3" numLanes="1" priority="4" shape="9768.48,11215.16 9756.26,11206.90 9737.34,11194.12 9701.02,11240.19 9705.16,11243.91 9720.72,11255.42 9730.71,11264.67" speed="16.67" to="2085347316" type="highway.residential" />
    <edge disallow="tram rail_urban rail rail_electric ship" from="1928871732" id="-229991408#4" numLanes="1" priority="4" speed="16.67" to="1928871729" type="highway.residential" />
    <edge disallow="tram rail_urban rail rail_electric ship" from="1875918979" id="-239039760#0" numLanes="1" priority="5" speed="16.67" to="2468520072" type="highway.unclassified" />
    <edge disallow="tram rail_urban rail rail_electric ship" from="1875903916" id="-239039760#1" numLanes="1" priority="5" speed="16.67" to="1875918979" type="highway.unclassified" />
    <edge disallow="tram rail_urban rail rail_electric ship" from="cluster_2479532073_2479532084_2479532088" id="-240198762" numLanes="1" priority="7" shape="12152.37,12984.78 12143.96,12996.00 12128.79,13011.66" speed="27.78" to="2479532068" type="highway.secondary" />
    <edge disallow="tram rail_urban rail rail_electric ship" from="4014594306" id="-24151046#3" numLanes="1" priority="6" shape="4711.07,8453.98 4685.21,8440.87 4528.87,8369.09 4369.18,8301.80 4321.97,8273.73 4310.06,8267.85" speed="16.67" to="261617143" type="highway.tertiary" />
    <edge disallow="tram rail_urban rail rail_electric ship" from="261703163" id="-24160892#0" numLanes="2" priority="7" speed="27.78" to="261702965" type="highway.secondary" />
    <edge disallow="tram rail_urban rail rail_electric ship" from="261703016" id="-24160892#1" numLanes="2" priority="7" speed="27.78" to="261703163" type="highway.secondary" />
    <edge disallow="tram rail_urban rail rail_electric ship" from="261703150" id="-24160892#2" numLanes="2" priority="7" speed="27.78" to="261703016" type="highway.secondary" />
    <edge disallow="tram rail_urban rail rail_electric ship" from="cluster_261703007_261703147" id="-24160892#3" numLanes="2" priority="7" shape="5861.89,7359.27 5817.12,7296.65" speed="27.78" to="261703150" type="highway.secondary" />
    <edge disallow="tram rail_urban rail rail_electric ship" from="261703116" id="-24160892#5" numLanes="2" priority="7" shape="5891.72,7400.98 5872.90,7374.67" speed="27.78" to="cluster_261703007_261703147" type="highway.secondary" />
    <edge disallow="tram rail_urban rail rail_electric ship" from="4170734331" id="-24160920" numLanes="1" priority="6" speed="22.22" to="261703150" type="highway.tertiary" />
    <edge disallow="tram rail_urban rail rail_electric ship" from="261703126" id="-24160926#0" numLanes="1" priority="6" speed="22.22" to="261703116" type="highway.tertiary" />
    <edge disallow="tram rail_urban rail rail_electric ship" from="261703118" id="-24160926#1" numLanes="1" priority="6" speed="22.22" to="261703126" type="highway.tertiary" />
    <edge disallow="tram rail_urban rail rail_electric ship" from="4170734310" id="-24160926#2" numLanes="1" priority="6" shape="6174.42,7203.09 6165.00,7207.08 6141.65,7222.53" speed="22.22" to="261703118" type="highway.tertiary" />
    <edge disallow="tram rail_urban rail rail_electric ship" from="cluster_261836186_261836188" id="-24178369#0" numLanes="1" priority="6" shape="10124.51,6595.02 10358.99,6313.27" speed="22.22" to="261836184" type="highway.tertiary" />
    <edge disallow="tram rail_urban rail rail_electric ship" from="261836191" id="-24178369#11" numLanes="1" priority="6" shape="9595.62,7225.38 9628.51,7184.64 9641.52,7168.44 9807.14,6970.85 9813.48,6963.38 9840.19,6931.88 9852.38,6917.51" speed="22.22" to="261836341" type="highway.tertiary" />
    <edge disallow="tram rail_urban rail rail_electric ship" from="261836331" id="-24178369#4" numLanes="1" priority="6" shape="9862.96,6903.85 9879.08,6884.67 10103.86,6620.39 10115.24,6606.03" speed="22.22" to="cluster_261836186_261836188" type="highway.tertiary" />
    <edge disallow="tram rail_urban rail rail_electric ship" from="261836341" id="-24178369#5" numLanes="1" priority="6" speed="22.22" to="261836331" type="highway.tertiary" />
    <edge disallow="tram rail_urban rail rail_electric ship" from="1462158984" id="-24186896#1" numLanes="1" priority="6" shape="10131.97,8220.29 10102.26,8267.93 10059.66,8317.17 9988.31,8400.79 9973.89,8408.23 9962.19,8414.95 9901.64,8487.20" speed="22.22" to="1280192675" type="highway.tertiary" />
    <edge disallow="tram rail_urban rail rail_electric ship" from="2147468627" id="-24186896#2" numLanes="1" priority="6" shape="10190.52,8136.65 10162.91,8172.89 10131.97,8220.29" speed="22.22" to="1462158984" type="highway.tertiary" />
    <edge disallow="tram rail_urban rail rail_electric ship" from="1878834916" id="-24186896#4" numLanes="1" priority="6" shape="10251.91,8066.09 10238.73,8081.49 10190.52,8136.65" speed="22.22" to="2147468627" type="highway.tertiary" />
    <edge disallow="tram rail_urban rail rail_electric ship" from="261963645" id="-24186896#7" numLanes="1" priority="6" shape="10365.01,7931.32 10350.70,7948.73 10328.96,7974.58 10251.91,8066.09" speed="22.22" to="1878834916" type="highway.tertiary" />
    <edge disallow="tram rail_urban rail rail_electric ship" from="262028448" id="-24197112#0" numLanes="2" priority="7" speed="27.78" to="262028379" type="highway.secondary" />
    <edge disallow="tram rail_urban rail rail_electric ship" from="262028443" id="-24197112#1" numLanes="2" priority="7" speed="27.78" to="262028448" type="highway.secondary" />
    <edge disallow="tram rail_urban rail rail_electric ship" from="1067914047" id="-24197112#2" numLanes="2" priority="7" speed="27.78" to="262028443" type="highway.secondary" />
    <edge disallow="tram rail_urban rail rail_electric ship" from="262028366" id="-24197112#3" numLanes="2" priority="7" speed="27.78" to="1067914047" type="highway.secondary" />
    <edge disallow="tram rail_urban rail rail_electric ship" from="262111032" id="-24206955#0" numLanes="1" priority="6" speed="22.22" to="262111022" type="highway.tertiary" />
    <edge disallow="tram rail_urban rail rail_electric ship" from="262111092" id="-24206955#1" numLanes="1" priority="6" speed="22.22" to="262111032" type="highway.tertiary" />
    <edge disallow="tram rail_urban rail rail_electric ship" from="262111024" id="-24206955#2" numLanes="1" priority="6" speed="22.22" to="262111092" type="highway.tertiary" />
    <edge disallow="tram rail_urban rail rail_electric ship" from="262111023" id="-24206955#3" numLanes="1" priority="6" speed="22.22" to="262111024" type="highway.tertiary" />
    <edge disallow="tram rail_urban rail rail_electric ship" from="262191307" id="-24215275" numLanes="1" priority="5" speed="16.67" to="262191305" type="highway.unclassified" />
    <edge disallow="tram rail_urban rail rail_electric ship" from="262629482" id="-24256855#4" numLanes="1" priority="6" shape="16526.81,3142.89 16483.82,3057.07 16458.54,3006.62 16454.41,2998.38 16424.13,2937.93 16345.82,2781.61" speed="22.22" to="262629460" type="highway.tertiary" />
    <edge disallow="tram rail_urban rail rail_electric ship" from="262629464" id="-24256855#5" numLanes="1" priority="6" speed="22.22" to="262629482" type="highway.tertiary" />
    <edge disallow="tram rail_urban rail rail_electric ship" from="2503219688" id="-242874569" numLanes="1" priority="5" speed="22.22" to="2503219686" type="highway.tertiary_link" />
    <edge disallow="tram rail_urban rail rail_electric ship" from="3997552264" id="-24289159#1" numLanes="1" priority="6" shape="14819.54,2857.36 14816.41,2841.44 14813.05,2824.13" speed="22.22" to="263008668" type="highway.tertiary" />
    <edge disallow="tram rail_urban rail rail_electric ship" from="3997543194" id="-24289159#8" numLanes="1" priority="6" shape="14893.06,3226.47 14877.61,3148.90 14874.15,3131.49 14872.58,3123.63 14866.92,3095.21 14853.77,3029.16 14849.88,3009.62 14821.01,2864.64 14819.54,2857.36" speed="22.22" to="3997552264" type="highway.tertiary" />
    <edge disallow="tram rail_urban rail rail_electric ship" from="1819668848" id="-24289313" numLanes="1" priority="6" shape="14619.20,5314.99 14604.62,5333.35" speed="22.22" to="263009848" type="highway.secondary_link" />
    <edge disallow="tram rail_urban rail rail_electric ship" from="263016333" id="-24290203" numLanes="1" priority="6" speed="22.22" to="263016331" type="highway.tertiary" />
    <edge disallow="tram rail_urban rail rail_electric ship" from="cluster_263017478_263017520" id="-24290244#2" numLanes="1" priority="6" shape="10326.85,5474.90 10378.07,5414.83 10385.62,5405.99 10399.72,5389.45" speed="22.22" to="263017477" type="highway.tertiary" />