<?xml version="1.0" encoding="UTF-8"?>

<!-- generated on 12/01/16 15:20:07 by SUMO netconvert Version 0.27.1
<?xml version="1.0" encoding="UTF-8"?>

<configuration xmlns:xsi="http://www.w3.org/2001/XMLSchema-instance" xsi:noNamespaceSchemaLocation="http://sumo.dlr.de/xsd/netconvertConfiguration.xsd">

    <input>
        <sumo-net-file value="C:\Users\zs633\Capstone\2_spring_network\test_random\0_map\test.net.xml"/>
    </input>

    <output>
        <plain-output-prefix value="test"/>
    </output>

    <processing>
        <no-turnarounds value="true"/>
        <offset.disable-normalization value="true"/>
        <lefthand value="false"/>
        <junctions.corner-detail value="0"/>
    </processing>

</configuration>
-->

<connections version="0.27" xmlns:xsi="http://www.w3.org/2001/XMLSchema-instance" xsi:noNamespaceSchemaLocation="http://sumo.dlr.de/xsd/connections_file.xsd">
    <connection from="xedge_00x00" to="yedge_01x00" fromLane="0" toLane="0"/>
    <connection from="xedge_00x00" to="xedge_00x02" fromLane="0" toLane="0"/>

    <connection from="xedge_00x01" to="yedge_00x00" fromLane="0" toLane="0"/>

    <connection from="xedge_00x02" to="yedge_02x00" fromLane="0" toLane="0"/>
    <connection from="xedge_00x02" to="xedge_00x04" fromLane="0" toLane="0"/>

    <connection from="xedge_00x03" to="xedge_00x01" fromLane="0" toLane="0"/>
    <connection from="xedge_00x03" to="yedge_01x00" fromLane="0" toLane="0"/>

    <connection from="xedge_00x04" to="yedge_03x00" fromLane="0" toLane="0"/>
    <connection from="xedge_00x04" to="xedge_00x06" fromLane="0" toLane="0"/>

    <connection from="xedge_00x05" to="xedge_00x03" fromLane="0" toLane="0"/>
    <connection from="xedge_00x05" to="yedge_02x00" fromLane="0" toLane="0"/>

    <connection from="xedge_00x06" to="yedge_04x00" fromLane="0" toLane="0"/>
    <connection from="xedge_00x06" to="xedge_00x08" fromLane="0" toLane="0"/>

    <connection from="xedge_00x07" to="xedge_00x05" fromLane="0" toLane="0"/>
    <connection from="xedge_00x07" to="yedge_03x00" fromLane="0" toLane="0"/>

    <connection from="xedge_00x08" to="yedge_05x00" fromLane="0" toLane="0"/>
    <connection from="xedge_00x08" to="xedge_00x10" fromLane="0" toLane="0"/>

    <connection from="xedge_00x09" to="xedge_00x07" fromLane="0" toLane="0"/>
    <connection from="xedge_00x09" to="yedge_04x00" fromLane="0" toLane="0"/>

    <connection from="xedge_00x10" to="yedge_06x00" fromLane="0" toLane="0"/>
    <connection from="xedge_00x10" to="xedge_00x12" fromLane="0" toLane="0"/>

    <connection from="xedge_00x11" to="xedge_00x09" fromLane="0" toLane="0"/>
    <connection from="xedge_00x11" to="yedge_05x00" fromLane="0" toLane="0"/>

    <connection from="xedge_00x12" to="yedge_07x00" fromLane="0" toLane="0"/>
    <connection from="xedge_00x12" to="xedge_00x14" fromLane="0" toLane="0"/>

    <connection from="xedge_00x13" to="xedge_00x11" fromLane="0" toLane="0"/>
    <connection from="xedge_00x13" to="yedge_06x00" fromLane="0" toLane="0"/>

    <connection from="xedge_00x14" to="yedge_08x00" fromLane="0" toLane="0"/>
    <connection from="xedge_00x14" to="xedge_00x16" fromLane="0" toLane="0"/>

    <connection from="xedge_00x15" to="xedge_00x13" fromLane="0" toLane="0"/>
    <connection from="xedge_00x15" to="yedge_07x00" fromLane="0" toLane="0"/>

    <connection from="xedge_00x16" to="yedge_09x00" fromLane="0" toLane="0"/>
    <connection from="xedge_00x16" to="xedge_00x18" fromLane="0" toLane="0"/>

    <connection from="xedge_00x17" to="xedge_00x15" fromLane="0" toLane="0"/>
    <connection from="xedge_00x17" to="yedge_08x00" fromLane="0" toLane="0"/>

    <connection from="xedge_00x18" to="yedge_10x00" fromLane="0" toLane="0"/>
    <connection from="xedge_00x18" to="xedge_00x20" fromLane="0" toLane="0"/>

    <connection from="xedge_00x19" to="xedge_00x17" fromLane="0" toLane="0"/>
    <connection from="xedge_00x19" to="yedge_09x00" fromLane="0" toLane="0"/>

    <connection from="xedge_00x20" to="yedge_11x00" fromLane="0" toLane="0"/>
    <connection from="xedge_00x20" to="xedge_00x22" fromLane="0" toLane="0"/>

    <connection from="xedge_00x21" to="xedge_00x19" fromLane="0" toLane="0"/>
    <connection from="xedge_00x21" to="yedge_10x00" fromLane="0" toLane="0"/>

    <connection from="xedge_00x22" to="yedge_12x00" fromLane="0" toLane="0"/>
    <connection from="xedge_00x22" to="xedge_00x24" fromLane="0" toLane="0"/>

    <connection from="xedge_00x23" to="xedge_00x21" fromLane="0" toLane="0"/>
    <connection from="xedge_00x23" to="yedge_11x00" fromLane="0" toLane="0"/>

    <connection from="xedge_00x24" to="yedge_13x00" fromLane="0" toLane="0"/>
    <connection from="xedge_00x24" to="xedge_00x26" fromLane="0" toLane="0"/>

    <connection from="xedge_00x25" to="xedge_00x23" fromLane="0" toLane="0"/>
    <connection from="xedge_00x25" to="yedge_12x00" fromLane="0" toLane="0"/>

    <connection from="xedge_00x26" to="yedge_14x00" fromLane="0" toLane="0"/>
    <connection from="xedge_00x26" to="xedge_00x28" fromLane="0" toLane="0"/>

    <connection from="xedge_00x27" to="xedge_00x25" fromLane="0" toLane="0"/>
    <connection from="xedge_00x27" to="yedge_13x00" fromLane="0" toLane="0"/>

    <connection from="xedge_00x28" to="yedge_15x00" fromLane="0" toLane="0"/>
    <connection from="xedge_00x28" to="xedge_00x30" fromLane="0" toLane="0"/>

    <connection from="xedge_00x29" to="xedge_00x27" fromLane="0" toLane="0"/>
    <connection from="xedge_00x29" to="yedge_14x00" fromLane="0" toLane="0"/>

    <connection from="xedge_00x30" to="yedge_16x00" fromLane="0" toLane="0"/>
    <connection from="xedge_00x30" to="xedge_00x32" fromLane="0" toLane="0"/>

    <connection from="xedge_00x31" to="xedge_00x29" fromLane="0" toLane="0"/>
    <connection from="xedge_00x31" to="yedge_15x00" fromLane="0" toLane="0"/>

    <connection from="xedge_00x32" to="yedge_17x00" fromLane="0" toLane="0"/>
    <connection from="xedge_00x32" to="xedge_00x34" fromLane="0" toLane="0"/>

    <connection from="xedge_00x33" to="xedge_00x31" fromLane="0" toLane="0"/>
    <connection from="xedge_00x33" to="yedge_16x00" fromLane="0" toLane="0"/>

    <connection from="xedge_00x34" to="yedge_18x00" fromLane="0" toLane="0"/>
    <connection from="xedge_00x34" to="xedge_00x36" fromLane="0" toLane="0"/>

    <connection from="xedge_00x35" to="xedge_00x33" fromLane="0" toLane="0"/>
    <connection from="xedge_00x35" to="yedge_17x00" fromLane="0" toLane="0"/>

    <connection from="xedge_00x36" to="yedge_19x00" fromLane="0" toLane="0"/>
    <connection from="xedge_00x36" to="xedge_00x38" fromLane="0" toLane="0"/>

    <connection from="xedge_00x37" to="xedge_00x35" fromLane="0" toLane="0"/>
    <connection from="xedge_00x37" to="yedge_18x00" fromLane="0" toLane="0"/>

    <connection from="xedge_00x38" to="yedge_20x00" fromLane="0" toLane="0"/>

    <connection from="xedge_00x39" to="xedge_00x37" fromLane="0" toLane="0"/>
    <connection from="xedge_00x39" to="yedge_19x00" fromLane="0" toLane="0"/>

    <connection from="xedge_01x00" to="yedge_01x02" fromLane="0" toLane="0"/>
    <connection from="xedge_01x00" to="xedge_01x02" fromLane="0" toLane="0"/>
    <connection from="xedge_01x00" to="yedge_01x01" fromLane="0" toLane="0"/>

    <connection from="xedge_01x01" to="yedge_00x01" fromLane="0" toLane="0"/>
    <connection from="xedge_01x01" to="yedge_00x02" fromLane="0" toLane="0"/>

    <connection from="xedge_01x02" to="yedge_02x02" fromLane="0" toLane="0"/>
    <connection from="xedge_01x02" to="xedge_01x04" fromLane="0" toLane="0"/>
    <connection from="xedge_01x02" to="yedge_02x01" fromLane="0" toLane="0"/>

    <connection from="xedge_01x03" to="yedge_01x01" fromLane="0" toLane="0"/>
    <connection from="xedge_01x03" to="xedge_01x01" fromLane="0" toLane="0"/>
    <connection from="xedge_01x03" to="yedge_01x02" fromLane="0" toLane="0"/>

    <connection from="xedge_01x04" to="yedge_03x02" fromLane="0" toLane="0"/>
    <connection from="xedge_01x04" to="xedge_01x06" fromLane="0" toLane="0"/>
    <connection from="xedge_01x04" to="yedge_03x01" fromLane="0" toLane="0"/>

    <connection from="xedge_01x05" to="yedge_02x01" fromLane="0" toLane="0"/>
    <connection from="xedge_01x05" to="xedge_01x03" fromLane="0" toLane="0"/>
    <connection from="xedge_01x05" to="yedge_02x02" fromLane="0" toLane="0"/>

    <connection from="xedge_01x06" to="yedge_04x02" fromLane="0" toLane="0"/>
    <connection from="xedge_01x06" to="xedge_01x08" fromLane="0" toLane="0"/>
    <connection from="xedge_01x06" to="yedge_04x01" fromLane="0" toLane="0"/>

    <connection from="xedge_01x07" to="yedge_03x01" fromLane="0" toLane="0"/>
    <connection from="xedge_01x07" to="xedge_01x05" fromLane="0" toLane="0"/>
    <connection from="xedge_01x07" to="yedge_03x02" fromLane="0" toLane="0"/>

    <connection from="xedge_01x08" to="yedge_05x02" fromLane="0" toLane="0"/>
    <connection from="xedge_01x08" to="xedge_01x10" fromLane="0" toLane="0"/>
    <connection from="xedge_01x08" to="yedge_05x01" fromLane="0" toLane="0"/>

    <connection from="xedge_01x09" to="yedge_04x01" fromLane="0" toLane="0"/>
    <connection from="xedge_01x09" to="xedge_01x07" fromLane="0" toLane="0"/>
    <connection from="xedge_01x09" to="yedge_04x02" fromLane="0" toLane="0"/>

    <connection from="xedge_01x10" to="yedge_06x02" fromLane="0" toLane="0"/>
    <connection from="xedge_01x10" to="xedge_01x12" fromLane="0" toLane="0"/>
    <connection from="xedge_01x10" to="yedge_06x01" fromLane="0" toLane="0"/>

    <connection from="xedge_01x11" to="yedge_05x01" fromLane="0" toLane="0"/>
    <connection from="xedge_01x11" to="xedge_01x09" fromLane="0" toLane="0"/>
    <connection from="xedge_01x11" to="yedge_05x02" fromLane="0" toLane="0"/>

    <connection from="xedge_01x12" to="yedge_07x02" fromLane="0" toLane="0"/>
    <connection from="xedge_01x12" to="xedge_01x14" fromLane="0" toLane="0"/>
    <connection from="xedge_01x12" to="yedge_07x01" fromLane="0" toLane="0"/>

    <connection from="xedge_01x13" to="yedge_06x01" fromLane="0" toLane="0"/>
    <connection from="xedge_01x13" to="xedge_01x11" fromLane="0" toLane="0"/>
    <connection from="xedge_01x13" to="yedge_06x02" fromLane="0" toLane="0"/>

    <connection from="xedge_01x14" to="yedge_08x02" fromLane="0" toLane="0"/>
    <connection from="xedge_01x14" to="xedge_01x16" fromLane="0" toLane="0"/>
    <connection from="xedge_01x14" to="yedge_08x01" fromLane="0" toLane="0"/>

    <connection from="xedge_01x15" to="yedge_07x01" fromLane="0" toLane="0"/>
    <connection from="xedge_01x15" to="xedge_01x13" fromLane="0" toLane="0"/>
    <connection from="xedge_01x15" to="yedge_07x02" fromLane="0" toLane="0"/>

    <connection from="xedge_01x16" to="yedge_09x02" fromLane="0" toLane="0"/>
    <connection from="xedge_01x16" to="xedge_01x18" fromLane="0" toLane="0"/>
    <connection from="xedge_01x16" to="yedge_09x01" fromLane="0" toLane="0"/>

    <connection from="xedge_01x17" to="yedge_08x01" fromLane="0" toLane="0"/>
    <connection from="xedge_01x17" to="xedge_01x15" fromLane="0" toLane="0"/>
    <connection from="xedge_01x17" to="yedge_08x02" fromLane="0" toLane="0"/>

    <connection from="xedge_01x18" to="yedge_10x02" fromLane="0" toLane="0"/>
    <connection from="xedge_01x18" to="xedge_01x20" fromLane="0" toLane="0"/>
    <connection from="xedge_01x18" to="yedge_10x01" fromLane="0" toLane="0"/>

    <connection from="xedge_01x19" to="yedge_09x01" fromLane="0" toLane="0"/>
    <connection from="xedge_01x19" to="xedge_01x17" fromLane="0" toLane="0"/>
    <connection from="xedge_01x19" to="yedge_09x02" fromLane="0" toLane="0"/>

    <connection from="xedge_01x20" to="yedge_11x02" fromLane="0" toLane="0"/>
    <connection from="xedge_01x20" to="xedge_01x22" fromLane="0" toLane="0"/>
    <connection from="xedge_01x20" to="yedge_11x01" fromLane="0" toLane="0"/>

    <connection from="xedge_01x21" to="yedge_10x01" fromLane="0" toLane="0"/>
    <connection from="xedge_01x21" to="xedge_01x19" fromLane="0" toLane="0"/>
    <connection from="xedge_01x21" to="yedge_10x02" fromLane="0" toLane="0"/>

    <connection from="xedge_01x22" to="yedge_12x02" fromLane="0" toLane="0"/>
    <connection from="xedge_01x22" to="xedge_01x24" fromLane="0" toLane="0"/>
    <connection from="xedge_01x22" to="yedge_12x01" fromLane="0" toLane="0"/>

    <connection from="xedge_01x23" to="yedge_11x01" fromLane="0" toLane="0"/>
    <connection from="xedge_01x23" to="xedge_01x21" fromLane="0" toLane="0"/>
    <connection from="xedge_01x23" to="yedge_11x02" fromLane="0" toLane="0"/>

    <connection from="xedge_01x24" to="yedge_13x02" fromLane="0" toLane="0"/>
    <connection from="xedge_01x24" to="xedge_01x26" fromLane="0" toLane="0"/>
    <connection from="xedge_01x24" to="yedge_13x01" fromLane="0" toLane="0"/>

    <connection from="xedge_01x25" to="yedge_12x01" fromLane="0" toLane="0"/>
    <connection from="xedge_01x25" to="xedge_01x23" fromLane="0" toLane="0"/>
    <connection from="xedge_01x25" to="yedge_12x02" fromLane="0" toLane="0"/>

    <connection from="xedge_01x26" to="yedge_14x02" fromLane="0" toLane="0"/>
    <connection from="xedge_01x26" to="xedge_01x28" fromLane="0" toLane="0"/>
    <connection from="xedge_01x26" to="yedge_14x01" fromLane="0" toLane="0"/>

    <connection from="xedge_01x27" to="yedge_13x01" fromLane="0" toLane="0"/>
    <connection from="xedge_01x27" to="xedge_01x25" fromLane="0" toLane="0"/>
    <connection from="xedge_01x27" to="yedge_13x02" fromLane="0" toLane="0"/>

    <connection from="xedge_01x28" to="yedge_15x02" fromLane="0" toLane="0"/>
    <connection from="xedge_01x28" to="xedge_01x30" fromLane="0" toLane="0"/>
    <connection from="xedge_01x28" to="yedge_15x01" fromLane="0" toLane="0"/>

    <connection from="xedge_01x29" to="yedge_14x01" fromLane="0" toLane="0"/>
    <connection from="xedge_01x29" to="xedge_01x27" fromLane="0" toLane="0"/>
    <connection from="xedge_01x29" to="yedge_14x02" fromLane="0" toLane="0"/>

    <connection from="xedge_01x30" to="yedge_16x02" fromLane="0" toLane="0"/>
    <connection from="xedge_01x30" to="xedge_01x32" fromLane="0" toLane="0"/>
    <connection from="xedge_01x30" to="yedge_16x01" fromLane="0" toLane="0"/>

    <connection from="xedge_01x31" to="yedge_15x01" fromLane="0" toLane="0"/>
    <connection from="xedge_01x31" to="xedge_01x29" fromLane="0" toLane="0"/>
    <connection from="xedge_01x31" to="yedge_15x02" fromLane="0" toLane="0"/>

    <connection from="xedge_01x32" to="yedge_17x02" fromLane="0" toLane="0"/>
    <connection from="xedge_01x32" to="xedge_01x34" fromLane="0" toLane="0"/>
    <connection from="xedge_01x32" to="yedge_17x01" fromLane="0" toLane="0"/>

    <connection from="xedge_01x33" to="yedge_16x01" fromLane="0" toLane="0"/>
    <connection from="xedge_01x33" to="xedge_01x31" fromLane="0" toLane="0"/>
    <connection from="xedge_01x33" to="yedge_16x02" fromLane="0" toLane="0"/>

    <connection from="xedge_01x34" to="yedge_18x02" fromLane="0" toLane="0"/>
    <connection from="xedge_01x34" to="xedge_01x36" fromLane="0" toLane="0"/>
    <connection from="xedge_01x34" to="yedge_18x01" fromLane="0" toLane="0"/>

    <connection from="xedge_01x35" to="yedge_17x01" fromLane="0" toLane="0"/>
    <connection from="xedge_01x35" to="xedge_01x33" fromLane="0" toLane="0"/>
    <connection from="xedge_01x35" to="yedge_17x02" fromLane="0" toLane="0"/>

    <connection from="xedge_01x36" to="yedge_19x02" fromLane="0" toLane="0"/>
    <connection from="xedge_01x36" to="xedge_01x38" fromLane="0" toLane="0"/>
    <connection from="xedge_01x36" to="yedge_19x01" fromLane="0" toLane="0"/>

    <connection from="xedge_01x37" to="yedge_18x01" fromLane="0" toLane="0"/>
    <connection from="xedge_01x37" to="xedge_01x35" fromLane="0" toLane="0"/>
    <connection from="xedge_01x37" to="yedge_18x02" fromLane="0" toLane="0"/>

    <connection from="xedge_01x38" to="yedge_20x02" fromLane="0" toLane="0"/>
    <connection from="xedge_01x38" to="yedge_20x01" fromLane="0" toLane="0"/>

    <connection from="xedge_01x39" to="yedge_19x01" fromLane="0" toLane="0"/>
    <connection from="xedge_01x39" to="xedge_01x37" fromLane="0" toLane="0"/>
    <connection from="xedge_01x39" to="yedge_19x02" fromLane="0" toLane="0"/>

    <connection from="xedge_02x00" to="yedge_01x04" fromLane="0" toLane="0"/>
    <connection from="xedge_02x00" to="xedge_02x02" fromLane="0" toLane="0"/>
    <connection from="xedge_02x00" to="yedge_01x03" fromLane="0" toLane="0"/>

    <connection from="xedge_02x01" to="yedge_00x03" fromLane="0" toLane="0"/>
    <connection from="xedge_02x01" to="yedge_00x04" fromLane="0" toLane="0"/>

    <connection from="xedge_02x02" to="yedge_02x04" fromLane="0" toLane="0"/>
    <connection from="xedge_02x02" to="xedge_02x04" fromLane="0" toLane="0"/>
    <connection from="xedge_02x02" to="yedge_02x03" fromLane="0" toLane="0"/>

    <connection from="xedge_02x03" to="yedge_01x03" fromLane="0" toLane="0"/>
    <connection from="xedge_02x03" to="xedge_02x01" fromLane="0" toLane="0"/>
    <connection from="xedge_02x03" to="yedge_01x04" fromLane="0" toLane="0"/>

    <connection from="xedge_02x04" to="yedge_03x04" fromLane="0" toLane="0"/>
    <connection from="xedge_02x04" to="xedge_02x06" fromLane="0" toLane="0"/>
    <connection from="xedge_02x04" to="yedge_03x03" fromLane="0" toLane="0"/>

    <connection from="xedge_02x05" to="yedge_02x03" fromLane="0" toLane="0"/>
    <connection from="xedge_02x05" to="xedge_02x03" fromLane="0" toLane="0"/>
    <connection from="xedge_02x05" to="yedge_02x04" fromLane="0" toLane="0"/>

    <connection from="xedge_02x06" to="yedge_04x04" fromLane="0" toLane="0"/>
    <connection from="xedge_02x06" to="xedge_02x08" fromLane="0" toLane="0"/>
    <connection from="xedge_02x06" to="yedge_04x03" fromLane="0" toLane="0"/>

    <connection from="xedge_02x07" to="yedge_03x03" fromLane="0" toLane="0"/>
    <connection from="xedge_02x07" to="xedge_02x05" fromLane="0" toLane="0"/>
    <connection from="xedge_02x07" to="yedge_03x04" fromLane="0" toLane="0"/>

    <connection from="xedge_02x08" to="yedge_05x04" fromLane="0" toLane="0"/>
    <connection from="xedge_02x08" to="xedge_02x10" fromLane="0" toLane="0"/>
    <connection from="xedge_02x08" to="yedge_05x03" fromLane="0" toLane="0"/>

    <connection from="xedge_02x09" to="yedge_04x03" fromLane="0" toLane="0"/>
    <connection from="xedge_02x09" to="xedge_02x07" fromLane="0" toLane="0"/>
    <connection from="xedge_02x09" to="yedge_04x04" fromLane="0" toLane="0"/>

    <connection from="xedge_02x10" to="yedge_06x04" fromLane="0" toLane="0"/>
    <connection from="xedge_02x10" to="xedge_02x12" fromLane="0" toLane="0"/>
    <connection from="xedge_02x10" to="yedge_06x03" fromLane="0" toLane="0"/>

    <connection from="xedge_02x11" to="yedge_05x03" fromLane="0" toLane="0"/>
    <connection from="xedge_02x11" to="xedge_02x09" fromLane="0" toLane="0"/>
    <connection from="xedge_02x11" to="yedge_05x04" fromLane="0" toLane="0"/>

    <connection from="xedge_02x12" to="yedge_07x04" fromLane="0" toLane="0"/>
    <connection from="xedge_02x12" to="xedge_02x14" fromLane="0" toLane="0"/>
    <connection from="xedge_02x12" to="yedge_07x03" fromLane="0" toLane="0"/>

    <connection from="xedge_02x13" to="yedge_06x03" fromLane="0" toLane="0"/>
    <connection from="xedge_02x13" to="xedge_02x11" fromLane="0" toLane="0"/>
    <connection from="xedge_02x13" to="yedge_06x04" fromLane="0" toLane="0"/>

    <connection from="xedge_02x14" to="yedge_08x04" fromLane="0" toLane="0"/>
    <connection from="xedge_02x14" to="xedge_02x16" fromLane="0" toLane="0"/>
    <connection from="xedge_02x14" to="yedge_08x03" fromLane="0" toLane="0"/>

    <connection from="xedge_02x15" to="yedge_07x03" fromLane="0" toLane="0"/>
    <connection from="xedge_02x15" to="xedge_02x13" fromLane="0" toLane="0"/>
    <connection from="xedge_02x15" to="yedge_07x04" fromLane="0" toLane="0"/>

    <connection from="xedge_02x16" to="yedge_09x04" fromLane="0" toLane="0"/>
    <connection from="xedge_02x16" to="xedge_02x18" fromLane="0" toLane="0"/>
    <connection from="xedge_02x16" to="yedge_09x03" fromLane="0" toLane="0"/>

    <connection from="xedge_02x17" to="yedge_08x03" fromLane="0" toLane="0"/>
    <connection from="xedge_02x17" to="xedge_02x15" fromLane="0" toLane="0"/>
    <connection from="xedge_02x17" to="yedge_08x04" fromLane="0" toLane="0"/>

    <connection from="xedge_02x18" to="yedge_10x04" fromLane="0" toLane="0"/>
    <connection from="xedge_02x18" to="xedge_02x20" fromLane="0" toLane="0"/>
    <connection from="xedge_02x18" to="yedge_10x03" fromLane="0" toLane="0"/>

    <connection from="xedge_02x19" to="yedge_09x03" fromLane="0" toLane="0"/>
    <connection from="xedge_02x19" to="xedge_02x17" fromLane="0" toLane="0"/>
    <connection from="xedge_02x19" to="yedge_09x04" fromLane="0" toLane="0"/>

    <connection from="xedge_02x20" to="yedge_11x04" fromLane="0" toLane="0"/>
    <connection from="xedge_02x20" to="xedge_02x22" fromLane="0" toLane="0"/>
    <connection from="xedge_02x20" to="yedge_11x03" fromLane="0" toLane="0"/>

    <connection from="xedge_02x21" to="yedge_10x03" fromLane="0" toLane="0"/>
    <connection from="xedge_02x21" to="xedge_02x19" fromLane="0" toLane="0"/>
    <connection from="xedge_02x21" to="yedge_10x04" fromLane="0" toLane="0"/>

    <connection from="xedge_02x22" to="yedge_12x04" fromLane="0" toLane="0"/>
    <connection from="xedge_02x22" to="xedge_02x24" fromLane="0" toLane="0"/>
    <connection from="xedge_02x22" to="yedge_12x03" fromLane="0" toLane="0"/>

    <connection from="xedge_02x23" to="yedge_11x03" fromLane="0" toLane="0"/>
    <connection from="xedge_02x23" to="xedge_02x21" fromLane="0" toLane="0"/>
    <connection from="xedge_02x23" to="yedge_11x04" fromLane="0" toLane="0"/>

    <connection from="xedge_02x24" to="yedge_13x04" fromLane="0" toLane="0"/>
    <connection from="xedge_02x24" to="xedge_02x26" fromLane="0" toLane="0"/>
    <connection from="xedge_02x24" to="yedge_13x03" fromLane="0" toLane="0"/>

    <connection from="xedge_02x25" to="yedge_12x03" fromLane="0" toLane="0"/>
    <connection from="xedge_02x25" to="xedge_02x23" fromLane="0" toLane="0"/>
    <connection from="xedge_02x25" to="yedge_12x04" fromLane="0" toLane="0"/>

    <connection from="xedge_02x26" to="yedge_14x04" fromLane="0" toLane="0"/>
    <connection from="xedge_02x26" to="xedge_02x28" fromLane="0" toLane="0"/>
    <connection from="xedge_02x26" to="yedge_14x03" fromLane="0" toLane="0"/>

    <connection from="xedge_02x27" to="yedge_13x03" fromLane="0" toLane="0"/>
    <connection from="xedge_02x27" to="xedge_02x25" fromLane="0" toLane="0"/>
    <connection from="xedge_02x27" to="yedge_13x04" fromLane="0" toLane="0"/>

    <connection from="xedge_02x28" to="yedge_15x04" fromLane="0" toLane="0"/>
    <connection from="xedge_02x28" to="xedge_02x30" fromLane="0" toLane="0"/>
    <connection from="xedge_02x28" to="yedge_15x03" fromLane="0" toLane="0"/>

    <connection from="xedge_02x29" to="yedge_14x03" fromLane="0" toLane="0"/>
    <connection from="xedge_02x29" to="xedge_02x27" fromLane="0" toLane="0"/>
    <connection from="xedge_02x29" to="yedge_14x04" fromLane="0" toLane="0"/>

    <connection from="xedge_02x30" to="yedge_16x04" fromLane="0" toLane="0"/>
    <connection from="xedge_02x30" to="xedge_02x32" fromLane="0" toLane="0"/>
    <connection from="xedge_02x30" to="yedge_16x03" fromLane="0" toLane="0"/>

    <connection from="xedge_02x31" to="yedge_15x03" fromLane="0" toLane="0"/>
    <connection from="xedge_02x31" to="xedge_02x29" fromLane="0" toLane="0"/>
    <connection from="xedge_02x31" to="yedge_15x04" fromLane="0" toLane="0"/>

    <connection from="xedge_02x32" to="yedge_17x04" fromLane="0" toLane="0"/>
    <connection from="xedge_02x32" to="xedge_02x34" fromLane="0" toLane="0"/>
    <connection from="xedge_02x32" to="yedge_17x03" fromLane="0" toLane="0"/>

    <connection from="xedge_02x33" to="yedge_16x03" fromLane="0" toLane="0"/>
    <connection from="xedge_02x33" to="xedge_02x31" fromLane="0" toLane="0"/>
    <connection from="xedge_02x33" to="yedge_16x04" fromLane="0" toLane="0"/>

    <connection from="xedge_02x34" to="yedge_18x04" fromLane="0" toLane="0"/>
    <connection from="xedge_02x34" to="xedge_02x36" fromLane="0" toLane="0"/>
    <connection from="xedge_02x34" to="yedge_18x03" fromLane="0" toLane="0"/>

    <connection from="xedge_02x35" to="yedge_17x03" fromLane="0" toLane="0"/>
    <connection from="xedge_02x35" to="xedge_02x33" fromLane="0" toLane="0"/>
    <connection from="xedge_02x35" to="yedge_17x04" fromLane="0" toLane="0"/>

    <connection from="xedge_02x36" to="yedge_19x04" fromLane="0" toLane="0"/>
    <connection from="xedge_02x36" to="xedge_02x38" fromLane="0" toLane="0"/>
    <connection from="xedge_02x36" to="yedge_19x03" fromLane="0" toLane="0"/>

    <connection from="xedge_02x37" to="yedge_18x03" fromLane="0" toLane="0"/>
    <connection from="xedge_02x37" to="xedge_02x35" fromLane="0" toLane="0"/>
    <connection from="xedge_02x37" to="yedge_18x04" fromLane="0" toLane="0"/>

    <connection from="xedge_02x38" to="yedge_20x04" fromLane="0" toLane="0"/>
    <connection from="xedge_02x38" to="yedge_20x03" fromLane="0" toLane="0"/>

    <connection from="xedge_02x39" to="yedge_19x03" fromLane="0" toLane="0"/>
    <connection from="xedge_02x39" to="xedge_02x37" fromLane="0" toLane="0"/>
    <connection from="xedge_02x39" to="yedge_19x04" fromLane="0" toLane="0"/>

    <connection from="xedge_03x00" to="yedge_01x06" fromLane="0" toLane="0"/>
    <connection from="xedge_03x00" to="xedge_03x02" fromLane="0" toLane="0"/>
    <connection from="xedge_03x00" to="yedge_01x05" fromLane="0" toLane="0"/>

    <connection from="xedge_03x01" to="yedge_00x05" fromLane="0" toLane="0"/>
    <connection from="xedge_03x01" to="yedge_00x06" fromLane="0" toLane="0"/>

    <connection from="xedge_03x02" to="yedge_02x06" fromLane="0" toLane="0"/>
    <connection from="xedge_03x02" to="xedge_03x04" fromLane="0" toLane="0"/>
    <connection from="xedge_03x02" to="yedge_02x05" fromLane="0" toLane="0"/>

    <connection from="xedge_03x03" to="yedge_01x05" fromLane="0" toLane="0"/>
    <connection from="xedge_03x03" to="xedge_03x01" fromLane="0" toLane="0"/>
    <connection from="xedge_03x03" to="yedge_01x06" fromLane="0" toLane="0"/>

    <connection from="xedge_03x04" to="yedge_03x06" fromLane="0" toLane="0"/>
    <connection from="xedge_03x04" to="xedge_03x06" fromLane="0" toLane="0"/>
    <connection from="xedge_03x04" to="yedge_03x05" fromLane="0" toLane="0"/>

    <connection from="xedge_03x05" to="yedge_02x05" fromLane="0" toLane="0"/>
    <connection from="xedge_03x05" to="xedge_03x03" fromLane="0" toLane="0"/>
    <connection from="xedge_03x05" to="yedge_02x06" fromLane="0" toLane="0"/>

    <connection from="xedge_03x06" to="yedge_04x06" fromLane="0" toLane="0"/>
    <connection from="xedge_03x06" to="xedge_03x08" fromLane="0" toLane="0"/>
    <connection from="xedge_03x06" to="yedge_04x05" fromLane="0" toLane="0"/>

    <connection from="xedge_03x07" to="yedge_03x05" fromLane="0" toLane="0"/>
    <connection from="xedge_03x07" to="xedge_03x05" fromLane="0" toLane="0"/>
    <connection from="xedge_03x07" to="yedge_03x06" fromLane="0" toLane="0"/>

    <connection from="xedge_03x08" to="yedge_05x06" fromLane="0" toLane="0"/>
    <connection from="xedge_03x08" to="xedge_03x10" fromLane="0" toLane="0"/>
    <connection from="xedge_03x08" to="yedge_05x05" fromLane="0" toLane="0"/>

    <connection from="xedge_03x09" to="yedge_04x05" fromLane="0" toLane="0"/>
    <connection from="xedge_03x09" to="xedge_03x07" fromLane="0" toLane="0"/>
    <connection from="xedge_03x09" to="yedge_04x06" fromLane="0" toLane="0"/>

    <connection from="xedge_03x10" to="yedge_06x06" fromLane="0" toLane="0"/>
    <connection from="xedge_03x10" to="xedge_03x12" fromLane="0" toLane="0"/>
    <connection from="xedge_03x10" to="yedge_06x05" fromLane="0" toLane="0"/>

    <connection from="xedge_03x11" to="yedge_05x05" fromLane="0" toLane="0"/>
    <connection from="xedge_03x11" to="xedge_03x09" fromLane="0" toLane="0"/>
    <connection from="xedge_03x11" to="yedge_05x06" fromLane="0" toLane="0"/>

    <connection from="xedge_03x12" to="yedge_07x06" fromLane="0" toLane="0"/>
    <connection from="xedge_03x12" to="xedge_03x14" fromLane="0" toLane="0"/>
    <connection from="xedge_03x12" to="yedge_07x05" fromLane="0" toLane="0"/>

    <connection from="xedge_03x13" to="yedge_06x05" fromLane="0" toLane="0"/>
    <connection from="xedge_03x13" to="xedge_03x11" fromLane="0" toLane="0"/>
    <connection from="xedge_03x13" to="yedge_06x06" fromLane="0" toLane="0"/>

    <connection from="xedge_03x14" to="yedge_08x06" fromLane="0" toLane="0"/>
    <connection from="xedge_03x14" to="xedge_03x16" fromLane="0" toLane="0"/>
    <connection from="xedge_03x14" to="yedge_08x05" fromLane="0" toLane="0"/>

    <connection from="xedge_03x15" to="yedge_07x05" fromLane="0" toLane="0"/>
    <connection from="xedge_03x15" to="xedge_03x13" fromLane="0" toLane="0"/>
    <connection from="xedge_03x15" to="yedge_07x06" fromLane="0" toLane="0"/>

    <connection from="xedge_03x16" to="yedge_09x06" fromLane="0" toLane="0"/>
    <connection from="xedge_03x16" to="xedge_03x18" fromLane="0" toLane="0"/>
    <connection from="xedge_03x16" to="yedge_09x05" fromLane="0" toLane="0"/>

    <connection from="xedge_03x17" to="yedge_08x05" fromLane="0" toLane="0"/>
    <connection from="xedge_03x17" to="xedge_03x15" fromLane="0" toLane="0"/>
    <connection from="xedge_03x17" to="yedge_08x06" fromLane="0" toLane="0"/>

    <connection from="xedge_03x18" to="yedge_10x06" fromLane="0" toLane="0"/>
    <connection from="xedge_03x18" to="xedge_03x20" fromLane="0" toLane="0"/>
    <connection from="xedge_03x18" to="yedge_10x05" fromLane="0" toLane="0"/>

    <connection from="xedge_03x19" to="yedge_09x05" fromLane="0" toLane="0"/>