<?xml version="1.0" encoding="UTF-8"?>

<!-- generated on 02/15/17 20:56:33 by SUMO netconvert Version 0.27.1
<?xml version="1.0" encoding="UTF-8"?>

<configuration xmlns:xsi="http://www.w3.org/2001/XMLSchema-instance" xsi:noNamespaceSchemaLocation="http://sumo.dlr.de/xsd/netconvertConfiguration.xsd">

    <input>
        <sumo-net-file value="C:\Users\zs633\capstone\z_test_random_removal\0_map\test.net.xml"/>
    </input>

    <output>
        <plain-output-prefix value="test"/>
    </output>

    <processing>
        <no-turnarounds value="true"/>
        <offset.disable-normalization value="true"/>
        <lefthand value="false"/>
        <junctions.corner-detail value="0"/>
    </processing>

</configuration>
-->

<nodes version="0.27" xmlns:xsi="http://www.w3.org/2001/XMLSchema-instance" xsi:noNamespaceSchemaLocation="http://sumo.dlr.de/xsd/nodes_file.xsd">
    <location netOffset="-224973.31,-2700122.99" convBoundary="0.00,0.00,2000.00,2000.00" origBoundary="54.286966,24.391306,54.609531,24.591038" projParameter="+proj=utm +zone=40 +ellps=WGS84 +datum=WGS84 +units=m +no_defs"/>

    <node id="node_00x00" x="0.00" y="0.00" type="right_before_left"/>
    <node id="node_00x01" x="0.00" y="100.00" type="right_before_left"/>
    <node id="node_00x02" x="0.00" y="200.00" type="right_before_left"/>
    <node id="node_00x03" x="0.00" y="300.00" type="right_before_left"/>
    <node id="node_00x04" x="0.00" y="400.00" type="right_before_left"/>
    <node id="node_00x05" x="0.00" y="500.00" type="right_before_left"/>
    <node id="node_00x06" x="0.00" y="600.00" type="right_before_left"/>
    <node id="node_00x07" x="0.00" y="700.00" type="right_before_left"/>
    <node id="node_00x08" x="0.00" y="800.00" type="right_before_left"/>
    <node id="node_00x09" x="0.00" y="900.00" type="right_before_left"/>
    <node id="node_00x10" x="0.00" y="1000.00" type="right_before_left"/>
    <node id="node_00x11" x="0.00" y="1100.00" type="right_before_left"/>
    <node id="node_00x12" x="0.00" y="1200.00" type="right_before_left"/>
    <node id="node_00x13" x="0.00" y="1300.00" type="right_before_left"/>
    <node id="node_00x14" x="0.00" y="1400.00" type="right_before_left"/>
    <node id="node_00x15" x="0.00" y="1500.00" type="right_before_left"/>
    <node id="node_00x16" x="0.00" y="1600.00" type="right_before_left"/>
    <node id="node_00x17" x="0.00" y="1700.00" type="right_before_left"/>
    <node id="node_00x18" x="0.00" y="1800.00" type="right_before_left"/>
    <node id="node_00x19" x="0.00" y="1900.00" type="right_before_left"/>
    <node id="node_00x20" x="0.00" y="2000.00" type="right_before_left"/>
    <node id="node_01x00" x="100.00" y="0.00" type="right_before_left"/>
    <node id="node_01x01" x="100.00" y="100.00" type="right_before_left"/>
    <node id="node_01x02" x="100.00" y="200.00" type="right_before_left"/>
    <node id="node_01x03" x="100.00" y="300.00" type="right_before_left"/>
    <node id="node_01x04" x="100.00" y="400.00" type="right_before_left"/>
    <node id="node_01x05" x="100.00" y="500.00" type="right_before_left"/>
    <node id="node_01x06" x="100.00" y="600.00" type="right_before_left"/>
    <node id="node_01x07" x="100.00" y="700.00" type="right_before_left"/>
    <node id="node_01x08" x="100.00" y="800.00" type="right_before_left"/>
    <node id="node_01x09" x="100.00" y="900.00" type="right_before_left"/>
    <node id="node_01x10" x="100.00" y="1000.00" type="right_before_left"/>
    <node id="node_01x11" x="100.00" y="1100.00" type="right_before_left"/>
    <node id="node_01x12" x="100.00" y="1200.00" type="right_before_left"/>
    <node id="node_01x13" x="100.00" y="1300.00" type="right_before_left"/>
    <node id="node_01x14" x="100.00" y="1400.00" type="right_before_left"/>
    <node id="node_01x15" x="100.00" y="1500.00" type="right_before_left"/>
    <node id="node_01x16" x="100.00" y="1600.00" type="right_before_left"/>
    <node id="node_01x17" x="100.00" y="1700.00" type="right_before_left"/>
    <node id="node_01x18" x="100.00" y="1800.00" type="right_before_left"/>
    <node id="node_01x19" x="100.00" y="1900.00" type="right_before_left"/>
    <node id="node_01x20" x="100.00" y="2000.00" type="right_before_left"/>
    <node id="node_02x00" x="200.00" y="0.00" type="right_before_left"/>
    <node id="node_02x01" x="200.00" y="100.00" type="right_before_left"/>
    <node id="node_02x02" x="200.00" y="200.00" type="right_before_left"/>
    <node id="node_02x03" x="200.00" y="300.00" type="right_before_left"/>
    <node id="node_02x04" x="200.00" y="400.00" type="right_before_left"/>
    <node id="node_02x05" x="200.00" y="500.00" type="right_before_left"/>
    <node id="node_02x06" x="200.00" y="600.00" type="right_before_left"/>
    <node id="node_02x07" x="200.00" y="700.00" type="right_before_left"/>
    <node id="node_02x08" x="200.00" y="800.00" type="right_before_left"/>
    <node id="node_02x09" x="200.00" y="900.00" type="right_before_left"/>
    <node id="node_02x10" x="200.00" y="1000.00" type="right_before_left"/>
    <node id="node_02x11" x="200.00" y="1100.00" type="right_before_left"/>
    <node id="node_02x12" x="200.00" y="1200.00" type="right_before_left"/>
    <node id="node_02x13" x="200.00" y="1300.00" type="right_before_left"/>
    <node id="node_02x14" x="200.00" y="1400.00" type="right_before_left"/>
    <node id="node_02x15" x="200.00" y="1500.00" type="right_before_left"/>
    <node id="node_02x16" x="200.00" y="1600.00" type="right_before_left"/>
    <node id="node_02x17" x="200.00" y="1700.00" type="right_before_left"/>
    <node id="node_02x18" x="200.00" y="1800.00" type="right_before_left"/>
    <node id="node_02x19" x="200.00" y="1900.00" type="right_before_left"/>
    <node id="node_02x20" x="200.00" y="2000.00" type="right_before_left"/>
    <node id="node_03x00" x="300.00" y="0.00" type="right_before_left"/>
    <node id="node_03x01" x="300.00" y="100.00" type="right_before_left"/>
    <node id="node_03x02" x="300.00" y="200.00" type="right_before_left"/>
    <node id="node_03x03" x="300.00" y="300.00" type="right_before_left"/>
    <node id="node_03x04" x="300.00" y="400.00" type="right_before_left"/>
    <node id="node_03x05" x="300.00" y="500.00" type="right_before_left"/>
    <node id="node_03x06" x="300.00" y="600.00" type="right_before_left"/>
    <node id="node_03x07" x="300.00" y="700.00" type="right_before_left"/>
    <node id="node_03x08" x="300.00" y="800.00" type="right_before_left"/>
    <node id="node_03x09" x="300.00" y="900.00" type="right_before_left"/>
    <node id="node_03x10" x="300.00" y="1000.00" type="right_before_left"/>
    <node id="node_03x11" x="300.00" y="1100.00" type="right_before_left"/>
    <node id="node_03x12" x="300.00" y="1200.00" type="right_before_left"/>
    <node id="node_03x13" x="300.00" y="1300.00" type="right_before_left"/>
    <node id="node_03x14" x="300.00" y="1400.00" type="right_before_left"/>
    <node id="node_03x15" x="300.00" y="1500.00" type="right_before_left"/>
    <node id="node_03x16" x="300.00" y="1600.00" type="right_before_left"/>
    <node id="node_03x17" x="300.00" y="1700.00" type="right_before_left"/>
    <node id="node_03x18" x="300.00" y="1800.00" type="right_before_left"/>
    <node id="node_03x19" x="300.00" y="1900.00" type="right_before_left"/>
    <node id="node_03x20" x="300.00" y="2000.00" type="right_before_left"/>
    <node id="node_04x00" x="400.00" y="0.00" type="right_before_left"/>
    <node id="node_04x01" x="400.00" y="100.00" type="right_before_left"/>
    <node id="node_04x02" x="400.00" y="200.00" type="right_before_left"/>
    <node id="node_04x03" x="400.00" y="300.00" type="right_before_left"/>
    <node id="node_04x04" x="400.00" y="400.00" type="right_before_left"/>
    <node id="node_04x05" x="400.00" y="500.00" type="right_before_left"/>
    <node id="node_04x06" x="400.00" y="600.00" type="right_before_left"/>
    <node id="node_04x07" x="400.00" y="700.00" type="right_before_left"/>
    <node id="node_04x08" x="400.00" y="800.00" type="right_before_left"/>
    <node id="node_04x09" x="400.00" y="900.00" type="right_before_left"/>
    <node id="node_04x10" x="400.00" y="1000.00" type="right_before_left"/>
    <node id="node_04x11" x="400.00" y="1100.00" type="right_before_left"/>
    <node id="node_04x12" x="400.00" y="1200.00" type="right_before_left"/>
    <node id="node_04x13" x="400.00" y="1300.00" type="right_before_left"/>
    <node id="node_04x14" x="400.00" y="1400.00" type="right_before_left"/>
    <node id="node_04x15" x="400.00" y="1500.00" type="right_before_left"/>
    <node id="node_04x16" x="400.00" y="1600.00" type="right_before_left"/>
    <node id="node_04x17" x="400.00" y="1700.00" type="right_before_left"/>
    <node id="node_04x18" x="400.00" y="1800.00" type="right_before_left"/>
    <node id="node_04x19" x="400.00" y="1900.00" type="right_before_left"/>
    <node id="node_04x20" x="400.00" y="2000.00" type="right_before_left"/>
    <node id="node_05x00" x="500.00" y="0.00" type="right_before_left"/>
    <node id="node_05x01" x="500.00" y="100.00" type="right_before_left"/>
    <node id="node_05x02" x="500.00" y="200.00" type="right_before_left"/>
    <node id="node_05x03" x="500.00" y="300.00" type="right_before_left"/>
    <node id="node_05x04" x="500.00" y="400.00" type="right_before_left"/>
    <node id="node_05x05" x="500.00" y="500.00" type="right_before_left"/>
    <node id="node_05x06" x="500.00" y="600.00" type="right_before_left"/>
    <node id="node_05x07" x="500.00" y="700.00" type="right_before_left"/>
    <node id="node_05x08" x="500.00" y="800.00" type="right_before_left"/>
    <node id="node_05x09" x="500.00" y="900.00" type="right_before_left"/>
    <node id="node_05x10" x="500.00" y="1000.00" type="right_before_left"/>
    <node id="node_05x11" x="500.00" y="1100.00" type="right_before_left"/>
    <node id="node_05x12" x="500.00" y="1200.00" type="right_before_left"/>
    <node id="node_05x13" x="500.00" y="1300.00" type="right_before_left"/>
    <node id="node_05x14" x="500.00" y="1400.00" type="right_before_left"/>
    <node id="node_05x15" x="500.00" y="1500.00" type="right_before_left"/>
    <node id="node_05x16" x="500.00" y="1600.00" type="right_before_left"/>
    <node id="node_05x17" x="500.00" y="1700.00" type="right_before_left"/>
    <node id="node_05x18" x="500.00" y="1800.00" type="right_before_left"/>
    <node id="node_05x19" x="500.00" y="1900.00" type="right_before_left"/>
    <node id="node_05x20" x="500.00" y="2000.00" type="right_before_left"/>
    <node id="node_06x00" x="600.00" y="0.00" type="right_before_left"/>
    <node id="node_06x01" x="600.00" y="100.00" type="right_before_left"/>
    <node id="node_06x02" x="600.00" y="200.00" type="right_before_left"/>
    <node id="node_06x03" x="600.00" y="300.00" type="right_before_left"/>
    <node id="node_06x04" x="600.00" y="400.00" type="right_before_left"/>
    <node id="node_06x05" x="600.00" y="500.00" type="right_before_left"/>
    <node id="node_06x06" x="600.00" y="600.00" type="right_before_left"/>
    <node id="node_06x07" x="600.00" y="700.00" type="right_before_left"/>
    <node id="node_06x08" x="600.00" y="800.00" type="right_before_left"/>
    <node id="node_06x09" x="600.00" y="900.00" type="right_before_left"/>
    <node id="node_06x10" x="600.00" y="1000.00" type="right_before_left"/>
    <node id="node_06x11" x="600.00" y="1100.00" type="right_before_left"/>
    <node id="node_06x12" x="600.00" y="1200.00" type="right_before_left"/>
    <node id="node_06x13" x="600.00" y="1300.00" type="right_before_left"/>
    <node id="node_06x14" x="600.00" y="1400.00" type="right_before_left"/>
    <node id="node_06x15" x="600.00" y="1500.00" type="right_before_left"/>
    <node id="node_06x16" x="600.00" y="1600.00" type="right_before_left"/>
    <node id="node_06x17" x="600.00" y="1700.00" type="right_before_left"/>
    <node id="node_06x18" x="600.00" y="1800.00" type="right_before_left"/>
    <node id="node_06x19" x="600.00" y="1900.00" type="right_before_left"/>
    <node id="node_06x20" x="600.00" y="2000.00" type="right_before_left"/>
    <node id="node_07x00" x="700.00" y="0.00" type="right_before_left"/>
    <node id="node_07x01" x="700.00" y="100.00" type="right_before_left"/>
    <node id="node_07x02" x="700.00" y="200.00" type="right_before_left"/>
    <node id="node_07x03" x="700.00" y="300.00" type="right_before_left"/>
    <node id="node_07x04" x="700.00" y="400.00" type="right_before_left"/>
    <node id="node_07x05" x="700.00" y="500.00" type="right_before_left"/>
    <node id="node_07x06" x="700.00" y="600.00" type="right_before_left"/>
    <node id="node_07x07" x="700.00" y="700.00" type="right_before_left"/>
    <node id="node_07x08" x="700.00" y="800.00" type="right_before_left"/>
    <node id="node_07x09" x="700.00" y="900.00" type="right_before_left"/>
    <node id="node_07x10" x="700.00" y="1000.00" type="right_before_left"/>
    <node id="node_07x11" x="700.00" y="1100.00" type="right_before_left"/>
    <node id="node_07x12" x="700.00" y="1200.00" type="right_before_left"/>
    <node id="node_07x13" x="700.00" y="1300.00" type="right_before_left"/>
    <node id="node_07x14" x="700.00" y="1400.00" type="right_before_left"/>
    <node id="node_07x15" x="700.00" y="1500.00" type="right_before_left"/>
    <node id="node_07x16" x="700.00" y="1600.00" type="right_before_left"/>
    <node id="node_07x17" x="700.00" y="1700.00" type="right_before_left"/>
    <node id="node_07x18" x="700.00" y="1800.00" type="right_before_left"/>
    <node id="node_07x19" x="700.00" y="1900.00" type="right_before_left"/>
    <node id="node_07x20" x="700.00" y="2000.00" type="right_before_left"/>
    <node id="node_08x00" x="800.00" y="0.00" type="right_before_left"/>
    <node id="node_08x01" x="800.00" y="100.00" type="right_before_left"/>
    <node id="node_08x02" x="800.00" y="200.00" type="right_before_left"/>
    <node id="node_08x03" x="800.00" y="300.00" type="right_before_left"/>
    <node id="node_08x04" x="800.00" y="400.00" type="right_before_left"/>
    <node id="node_08x05" x="800.00" y="500.00" type="right_before_left"/>
    <node id="node_08x06" x="800.00" y="600.00" type="right_before_left"/>
    <node id="node_08x07" x="800.00" y="700.00" type="right_before_left"/>
    <node id="node_08x08" x="800.00" y="800.00" type="right_before_left"/>
    <node id="node_08x09" x="800.00" y="900.00" type="right_before_left"/>
    <node id="node_08x10" x="800.00" y="1000.00" type="right_before_left"/>
    <node id="node_08x11" x="800.00" y="1100.00" type="right_before_left"/>
    <node id="node_08x12" x="800.00" y="1200.00" type="right_before_left"/>
    <node id="node_08x13" x="800.00" y="1300.00" type="right_before_left"/>
    <node id="node_08x14" x="800.00" y="1400.00" type="right_before_left"/>
    <node id="node_08x15" x="800.00" y="1500.00" type="right_before_left"/>
    <node id="node_08x16" x="800.00" y="1600.00" type="right_before_left"/>
    <node id="node_08x17" x="800.00" y="1700.00" type="right_before_left"/>
    <node id="node_08x18" x="800.00" y="1800.00" type="right_before_left"/>
    <node id="node_08x19" x="800.00" y="1900.00" type="right_before_left"/>
    <node id="node_08x20" x="800.00" y="2000.00" type="right_before_left"/>
    <node id="node_09x00" x="900.00" y="0.00" type="right_before_left"/>
    <node id="node_09x01" x="900.00" y="100.00" type="right_before_left"/>
    <node id="node_09x02" x="900.00" y="200.00" type="right_before_left"/>
    <node id="node_09x03" x="900.00" y="300.00" type="right_before_left"/>
    <node id="node_09x04" x="900.00" y="400.00" type="right_before_left"/>
    <node id="node_09x05" x="900.00" y="500.00" type="right_before_left"/>
    <node id="node_09x06" x="900.00" y="600.00" type="right_before_left"/>
    <node id="node_09x07" x="900.00" y="700.00" type="right_before_left"/>
    <node id="node_09x08" x="900.00" y="800.00" type="right_before_left"/>
    <node id="node_09x09" x="900.00" y="900.00" type="right_before_left"/>
    <node id="node_09x10" x="900.00" y="1000.00" type="right_before_left"/>
    <node id="node_09x11" x="900.00" y="1100.00" type="right_before_left"/>
    <node id="node_09x12" x="900.00" y="1200.00" type="right_before_left"/>
    <node id="node_09x13" x="900.00" y="1300.00" type="right_before_left"/>
    <node id="node_09x14" x="900.00" y="1400.00" type="right_before_left"/>
    <node id="node_09x15" x="900.00" y="1500.00" type="right_before_left"/>
    <node id="node_09x16" x="900.00" y="1600.00" type="right_before_left"/>
    <node id="node_09x17" x="900.00" y="1700.00" type="right_before_left"/>
    <node id="node_09x18" x="900.00" y="1800.00" type="right_before_left"/>
    <node id="node_09x19" x="900.00" y="1900.00" type="right_before_left"/>
    <node id="node_09x20" x="900.00" y="2000.00" type="right_before_left"/>
    <node id="node_10x00" x="1000.00" y="0.00" type="right_before_left"/>
    <node id="node_10x01" x="1000.00" y="100.00" type="right_before_left"/>
    <node id="node_10x02" x="1000.00" y="200.00" type="right_before_left"/>
    <node id="node_10x03" x="1000.00" y="300.00" type="right_before_left"/>
    <node id="node_10x04" x="1000.00" y="400.00" type="right_before_left"/>
    <node id="node_10x05" x="1000.00" y="500.00" type="right_before_left"/>
    <node id="node_10x06" x="1000.00" y="600.00" type="right_before_left"/>
    <node id="node_10x07" x="1000.00" y="700.00" type="right_before_left"/>
    <node id="node_10x08" x="1000.00" y="800.00" type="right_before_left"/>
    <node id="node_10x09" x="1000.00" y="900.00" type="right_before_left"/>
    <node id="node_10x10" x="1000.00" y="1000.00" type="right_before_left"/>
    <node id="node_10x11" x="1000.00" y="1100.00" type="right_before_left"/>
    <node id="node_10x12" x="1000.00" y="1200.00" type="right_before_left"/>
    <node id="node_10x13" x="1000.00" y="1300.00" type="right_before_left"/>
    <node id="node_10x14" x="1000.00" y="1400.00" type="right_before_left"/>
    <node id="node_10x15" x="1000.00" y="1500.00" type="right_before_left"/>
    <node id="node_10x16" x="1000.00" y="1600.00" type="right_before_left"/>
    <node id="node_10x17" x="1000.00" y="1700.00" type="right_before_left"/>
    <node id="node_10x18" x="1000.00" y="1800.00" type="right_before_left"/>
    <node id="node_10x19" x="1000.00" y="1900.00" type="right_before_left"/>
    <node id="node_10x20" x="1000.00" y="2000.00" type="right_before_left"/>
    <node id="node_11x00" x="1100.00" y="0.00" type="right_before_left"/>
    <node id="node_11x01" x="1100.00" y="100.00" type="right_before_left"/>
    <node id="node_11x02" x="1100.00" y="200.00" type="right_before_left"/>
    <node id="node_11x03" x="1100.00" y="300.00" type="right_before_left"/>
    <node id="node_11x04" x="1100.00" y="400.00" type="right_before_left"/>
    <node id="node_11x05" x="1100.00" y="500.00" type="right_before_left"/>
    <node id="node_11x06" x="1100.00" y="600.00" type="right_before_left"/>
    <node id="node_11x07" x="1100.00" y="700.00" type="right_before_left"/>
    <node id="node_11x08" x="1100.00" y="800.00" type="right_before_left"/>
    <node id="node_11x09" x="1100.00" y="900.00" type="right_before_left"/>
    <node id="node_11x10" x="1100.00" y="1000.00" type="right_before_left"/>
    <node id="node_11x11" x="1100.00" y="1100.00" type="right_before_left"/>
    <node id="node_11x12" x="1100.00" y="1200.00" type="right_before_left"/>
    <node id="node_11x13" x="1100.00" y="1300.00" type="right_before_left"/>
    <node id="node_11x14" x="1100.00" y="1400.00" type="right_before_left"/>
    <node id="node_11x15" x="1100.00" y="1500.00" type="right_before_left"/>
    <node id="node_11x16" x="1100.00" y="1600.00" type="right_before_left"/>
    <node id="node_11x17" x="1100.00" y="1700.00" type="right_before_left"/>
    <node id="node_11x18" x="1100.00" y="1800.00" type="right_before_left"/>
    <node id="node_11x19" x="1100.00" y="1900.00" type="right_before_left"/>
    <node id="node_11x20" x="1100.00" y="2000.00" type="right_before_left"/>
    <node id="node_12x00" x="1200.00" y="0.00" type="right_before_left"/>
    <node id="node_12x01" x="1200.00" y="100.00" type="right_before_left"/>
    <node id="node_12x02" x="1200.00" y="200.00" type="right_before_left"/>
    <node id="node_12x03" x="1200.00" y="300.00" type="right_before_left"/>
    <node id="node_12x04" x="1200.00" y="400.00" type="right_before_left"/>
    <node id="node_12x05" x="1200.00" y="500.00" type="right_before_left"/>
    <node id="node_12x06" x="1200.00" y="600.00" type="right_before_left"/>
    <node id="node_12x07" x="1200.00" y="700.00" type="right_before_left"/>
    <node id="node_12x08" x="1200.00" y="800.00" type="right_before_left"/>
    <node id="node_12x09" x="1200.00" y="900.00" type="right_before_left"/>
    <node id="node_12x10" x="1200.00" y="1000.00" type="right_before_left"/>
    <node id="node_12x11" x="1200.00" y="1100.00" type="right_before_left"/>
    <node id="node_12x12" x="1200.00" y="1200.00" type="right_before_left"/>
    <node id="node_12x13" x="1200.00" y="1300.00" type="right_before_left"/>
    <node id="node_12x14" x="1200.00" y="1400.00" type="right_before_left"/>
    <node id="node_12x15" x="1200.00" y="1500.00" type="right_before_left"/>
    <node id="node_12x16" x="1200.00" y="1600.00" type="right_before_left"/>
    <node id="node_12x17" x="1200.00" y="1700.00" type="right_before_left"/>
    <node id="node_12x18" x="1200.00" y="1800.00" type="right_before_left"/>
    <node id="node_12x19" x="1200.00" y="1900.00" type="right_before_left"/>
    <node id="node_12x20" x="1200.00" y="2000.00" type="right_before_left"/>
    <node id="node_13x00" x="1300.00" y="0.00" type="right_before_left"/>
    <node id="node_13x01" x="1300.00" y="100.00" type="right_before_left"/>
    <node id="node_13x02" x="1300.00" y="200.00" type="right_before_left"/>
    <node id="node_13x03" x="1300.00" y="300.00" type="right_before_left"/>
    <node id="node_13x04" x="1300.00" y="400.00" type="right_before_left"/>
    <node id="node_13x05" x="1300.00" y="500.00" type="right_before_left"/>
    <node id="node_13x06" x="1300.00" y="600.00" type="right_before_left"/>
    <node id="node_13x07" x="1300.00" y="700.00" type="right_before_left"/>
    <node id="node_13x08" x="1300.00" y="800.00" type="right_before_left"/>
    <node id="node_13x09" x="1300.00" y="900.00" type="right_before_left"/>
    <node id="node_13x10" x="1300.00" y="1000.00" type="right_before_left"/>
    <node id="node_13x11" x="1300.00" y="1100.00" type="right_before_left"/>
    <node id="node_13x12" x="1300.00" y="1200.00" type="right_before_left"/>
    <node id="node_13x13" x="1300.00" y="1300.00" type="right_before_left"/>
    <node id="node_13x14" x="1300.00" y="1400.00" type="right_before_left"/>
    <node id="node_13x15" x="1300.00" y="1500.00" type="right_before_left"/>
    <node id="node_13x16" x="1300.00" y="1600.00" type="right_before_left"/>
    <node id="node_13x17" x="1300.00" y="1700.00" type="right_before_left"/>
    <node id="node_13x18" x="1300.00" y="1800.00" type="right_before_left"/>
    <node id="node_13x19" x="1300.00" y="1900.00" type="right_before_left"/>
    <node id="node_13x20" x="1300.00" y="2000.00" type="right_before_left"/>
    <node id="node_14x00" x="1400.00" y="0.00" type="right_before_left"/>
    <node id="node_14x01" x="1400.00" y="100.00" type="right_before_left"/>
    <node id="node_14x02" x="1400.00" y="200.00" type="right_before_left"/>
    <node id="node_14x03" x="1400.00" y="300.00" type="right_before_left"/>
    <node id="node_14x04" x="1400.00" y="400.00" type="right_before_left"/>
    <node id="node_14x05" x="1400.00" y="500.00" type="right_before_left"/>
    <node id="node_14x06" x="1400.00" y="600.00" type="right_before_left"/>
    <node id="node_14x07" x="1400.00" y="700.00" type="right_before_left"/>
    <node id="node_14x08" x="1400.00" y="800.00" type="right_before_left"/>
    <node id="node_14x09" x="1400.00" y="900.00" type="right_before_left"/>
    <node id="node_14x10" x="1400.00" y="1000.00" type="right_before_left"/>
    <node id="node_14x11" x="1400.00" y="1100.00" type="right_before_left"/>
    <node id="node_14x12" x="1400.00" y="1200.00" type="right_before_left"/>
    <node id="node_14x13" x="1400.00" y="1300.00" type="right_before_left"/>
    <node id="node_14x14" x="1400.00" y="1400.00" type="right_before_left"/>
    <node id="node_14x15" x="1400.00" y="1500.00" type="right_before_left"/>
    <node id="node_14x16" x="1400.00" y="1600.00" type="right_before_left"/>
    <node id="node_14x17" x="1400.00" y="1700.00" type="right_before_left"/>
    <node id="node_14x18" x="1400.00" y="1800.00" type="right_before_left"/>
    <node id="node_14x19" x="1400.00" y="1900.00" type="right_before_left"/>
    <node id="node_14x20" x="1400.00" y="2000.00" type="right_before_left"/>
    <node id="node_15x00" x="1500.00" y="0.00" type="right_before_left"/>
    <node id="node_15x01" x="1500.00" y="100.00" type="right_before_left"/>
    <node id="node_15x02" x="1500.00" y="200.00" type="right_before_left"/>
    <node id="node_15x03" x="1500.00" y="300.00" type="right_before_left"/>
    <node id="node_15x04" x="1500.00" y="400.00" type="right_before_left"/>
    <node id="node_15x05" x="1500.00" y="500.00" type="right_before_left"/>
    <node id="node_15x06" x="1500.00" y="600.00" type="right_before_left"/>
    <node id="node_15x07" x="1500.00" y="700.00" type="right_before_left"/>
    <node id="node_15x08" x="1500.00" y="800.00" type="right_before_left"/>
    <node id="node_15x09" x="1500.00" y="900.00" type="right_before_left"/>
    <node id="node_15x10" x="1500.00" y="1000.00" type="right_before_left"/>
    <node id="node_15x11" x="1500.00" y="1100.00" type="right_before_left"/>
    <node id="node_15x12" x="1500.00" y="1200.00" type="right_before_left"/>
    <node id="node_15x13" x="1500.00" y="1300.00" type="right_before_left"/>
    <node id="node_15x14" x="1500.00" y="1400.00" type="right_before_left"/>
    <node id="node_15x15" x="1500.00" y="1500.00" type="right_before_left"/>
    <node id="node_15x16" x="1500.00" y="1600.00" type="right_before_left"/>
    <node id="node_15x17" x="1500.00" y="1700.00" type="right_before_left"/>
    <node id="node_15x18" x="1500.00" y="1800.00" type="right_before_left"/>
    <node id="node_15x19" x="1500.00" y="1900.00" type="right_before_left"/>
    <node id="node_15x20" x="1500.00" y="2000.00" type="right_before_left"/>
    <node id="node_16x00" x="1600.00" y="0.00" type="right_before_left"/>
    <node id="node_16x01" x="1600.00" y="100.00" type="right_before_left"/>
    <node id="node_16x02" x="1600.00" y="200.00" type="right_before_left"/>
    <node id="node_16x03" x="1600.00" y="300.00" type="right_before_left"/>
    <node id="node_16x04" x="1600.00" y="400.00" type="right_before_left"/>
    <node id="node_16x05" x="1600.00" y="500.00" type="right_before_left"/>
    <node id="node_16x06" x="1600.00" y="600.00" type="right_before_left"/>
    <node id="node_16x07" x="1600.00" y="700.00" type="right_before_left"/>
    <node id="node_16x08" x="1600.00" y="800.00" type="right_before_left"/>
    <node id="node_16x09" x="1600.00" y="900.00" type="right_before_left"/>
    <node id="node_16x10" x="1600.00" y="1000.00" type="right_before_left"/>
    <node id="node_16x11" x="1600.00" y="1100.00" type="right_before_left"/>
    <node id="node_16x12" x="1600.00" y="1200.00" type="right_before_left"/>
    <node id="node_16x13" x="1600.00" y="1300.00" type="right_before_left"/>
    <node id="node_16x14" x="1600.00" y="1400.00" type="right_before_left"/>
    <node id="node_16x15" x="1600.00" y="1500.00" type="right_before_left"/>
    <node id="node_16x16" x="1600.00" y="1600.00" type="right_before_left"/>
    <node id="node_16x17" x="1600.00" y="1700.00" type="right_before_left"/>
    <node id="node_16x18" x="1600.00" y="1800.00" type="right_before_left"/>
    <node id="node_16x19" x="1600.00" y="1900.00" type="right_before_left"/>
    <node id="node_16x20" x="1600.00" y="2000.00" type="right_before_left"/>
    <node id="node_17x00" x="1700.00" y="0.00" type="right_before_left"/>
    <node id="node_17x01" x="1700.00" y="100.00" type="right_before_left"/>
    <node id="node_17x02" x="1700.00" y="200.00" type="right_before_left"/>
    <node id="node_17x03" x="1700.00" y="300.00" type="right_before_left"/>
    <node id="node_17x04" x="1700.00" y="400.00" type="right_before_left"/>
    <node id="node_17x05" x="1700.00" y="500.00" type="right_before_left"/>
    <node id="node_17x06" x="1700.00" y="600.00" type="right_before_left"/>
    <node id="node_17x07" x="1700.00" y="700.00" type="right_before_left"/>
    <node id="node_17x08" x="1700.00" y="800.00" type="right_before_left"/>
    <node id="node_17x09" x="1700.00" y="900.00" type="right_before_left"/>
    <node id="node_17x10" x="1700.00" y="1000.00" type="right_before_left"/>
    <node id="node_17x11" x="1700.00" y="1100.00" type="right_before_left"/>
    <node id="node_17x12" x="1700.00" y="1200.00" type="right_before_left"/>
    <node id="node_17x13" x="1700.00" y="1300.00" type="right_before_left"/>
    <node id="node_17x14" x="1700.00" y="1400.00" type="right_before_left"/>
    <node id="node_17x15" x="1700.00" y="1500.00" type="right_before_left"/>
    <node id="node_17x16" x="1700.00" y="1600.00" type="right_before_left"/>
    <node id="node_17x17" x="1700.00" y="1700.00" type="right_before_left"/>
    <node id="node_17x18" x="1700.00" y="1800.00" type="right_before_left"/>
    <node id="node_17x19" x="1700.00" y="1900.00" type="right_before_left"/>
    <node id="node_17x20" x="1700.00" y="2000.00" type="right_before_left"/>
    <node id="node_18x00" x="1800.00" y="0.00" type="right_before_left"/>
    <node id="node_18x01" x="1800.00" y="100.00" type="right_before_left"/>
    <node id="node_18x02" x="1800.00" y="200.00" type="right_before_left"/>