<?xml version='1.0' encoding='UTF-8'?>
<nodes xmlns:xsi="http://www.w3.org/2001/XMLSchema-instance" version="0.27" xsi:noNamespaceSchemaLocation="http://sumo.dlr.de/xsd/edges_file.xsd"><node avg_slowdown_ratio="0.71382289417" id="node_12x10" type="right_before_left" weight_num="4.0" weight_sum="2.85529157668" x="1200.00" y="1000.00" />
    <node avg_slowdown_ratio="0.711663066955" id="node_12x11" type="right_before_left" weight_num="4.0" weight_sum="2.84665226782" x="1200.00" y="1100.00" />
    <node avg_slowdown_ratio="0.710043196545" id="node_10x08" type="right_before_left" weight_num="4.0" weight_sum="2.84017278618" x="1000.00" y="800.00" />
    <node avg_slowdown_ratio="0.674046076315" id="node_11x11" type="right_before_left" weight_num="4.0" weight_sum="2.69618430526" x="1100.00" y="1100.00" />
    <node avg_slowdown_ratio="0.65172786177" id="node_10x07" type="right_before_left" weight_num="4.0" weight_sum="2.60691144708" x="1000.00" y="700.00" />
    <node avg_slowdown_ratio="0.649028077753" id="node_10x09" type="right_before_left" weight_num="4.0" weight_sum="2.59611231101" x="1000.00" y="900.00" />
    <node avg_slowdown_ratio="0.645968322535" id="node_11x10" type="right_before_left" weight_num="4.0" weight_sum="2.58387329014" x="1100.00" y="1000.00" />
    <node avg_slowdown_ratio="0.641828653707" id="node_12x12" type="right_before_left" weight_num="4.0" weight_sum="2.56731461483" x="1200.00" y="1200.00" />
    <node avg_slowdown_ratio="0.640568754497" id="node_11x12" type="right_before_left" weight_num="4.0" weight_sum="2.56227501799" x="1100.00" y="1200.00" />
    <node avg_slowdown_ratio="0.638048956085" id="node_12x09" type="right_before_left" weight_num="4.0" weight_sum="2.55219582434" x="1200.00" y="900.00" />
    <node avg_slowdown_ratio="0.632109431245" id="node_10x11" type="right_before_left" weight_num="4.0" weight_sum="2.52843772498" x="1000.00" y="1100.00" />
    <node avg_slowdown_ratio="0.628329733622" id="node_08x07" type="right_before_left" weight_num="4.0" weight_sum="2.51331893449" x="800.00" y="700.00" />
    <node avg_slowdown_ratio="0.624730021598" id="node_10x10" type="right_before_left" weight_num="4.0" weight_sum="2.49892008639" x="1000.00" y="1000.00" />
    <node avg_slowdown_ratio="0.621310295175" id="node_09x07" type="right_before_left" weight_num="4.0" weight_sum="2.4852411807" x="900.00" y="700.00" />
    <node avg_slowdown_ratio="0.620230381567" id="node_09x08" type="right_before_left" weight_num="4.0" weight_sum="2.48092152627" x="900.00" y="800.00" />
    <node avg_slowdown_ratio="0.613750899927" id="node_13x10" type="right_before_left" weight_num="4.0" weight_sum="2.45500359971" x="1300.00" y="1000.00" />
    <node avg_slowdown_ratio="0.613390928728" id="node_10x12" type="right_before_left" weight_num="4.0" weight_sum="2.45356371491" x="1000.00" y="1200.00" />
    <node avg_slowdown_ratio="0.613030957525" id="node_08x08" type="right_before_left" weight_num="4.0" weight_sum="2.4521238301" x="800.00" y="800.00" />
    <node avg_slowdown_ratio="0.61069114471" id="node_11x08" type="right_before_left" weight_num="4.0" weight_sum="2.44276457884" x="1100.00" y="800.00" />
    <node avg_slowdown_ratio="0.6094312455" id="node_11x09" type="right_before_left" weight_num="4.0" weight_sum="2.437724982" x="1100.00" y="900.00" />
    <node avg_slowdown_ratio="0.60781137509" id="node_07x09" type="right_before_left" weight_num="4.0" weight_sum="2.43124550036" x="700.00" y="900.00" />
    <node avg_slowdown_ratio="0.60637149028" id="node_07x08" type="right_before_left" weight_num="4.0" weight_sum="2.42548596112" x="700.00" y="800.00" />
    <node avg_slowdown_ratio="0.60025197984" id="node_13x11" type="right_before_left" weight_num="4.0" weight_sum="2.40100791936" x="1300.00" y="1100.00" />
    <node avg_slowdown_ratio="0.59521238301" id="node_09x11" type="right_before_left" weight_num="4.0" weight_sum="2.38084953204" x="900.00" y="1100.00" />
    <node avg_slowdown_ratio="0.589632829375" id="node_09x12" type="right_before_left" weight_num="4.0" weight_sum="2.3585313175" x="900.00" y="1200.00" />
    <node avg_slowdown_ratio="0.589452843772" id="node_08x09" type="right_before_left" weight_num="4.0" weight_sum="2.35781137509" x="800.00" y="900.00" />
    <node avg_slowdown_ratio="0.58747300216" id="node_12x08" type="right_before_left" weight_num="4.0" weight_sum="2.34989200864" x="1200.00" y="800.00" />
    <node avg_slowdown_ratio="0.58603311735" id="node_08x13" type="right_before_left" weight_num="4.0" weight_sum="2.3441324694" x="800.00" y="1300.00" />
    <node avg_slowdown_ratio="0.585673146147" id="node_07x13" type="right_before_left" weight_num="4.0" weight_sum="2.34269258459" x="700.00" y="1300.00" />
    <node avg_slowdown_ratio="0.585673146147" id="node_08x11" type="right_before_left" weight_num="4.0" weight_sum="2.34269258459" x="800.00" y="1100.00" />
    <node avg_slowdown_ratio="0.583873290138" id="node_14x10" type="right_before_left" weight_num="4.0" weight_sum="2.33549316055" x="1400.00" y="1000.00" />
    <node avg_slowdown_ratio="0.58279337653" id="node_07x11" type="right_before_left" weight_num="4.0" weight_sum="2.33117350612" x="700.00" y="1100.00" />
    <node avg_slowdown_ratio="0.582253419725" id="node_09x10" type="right_before_left" weight_num="4.0" weight_sum="2.3290136789" x="900.00" y="1000.00" />
    <node avg_slowdown_ratio="0.581173506122" id="node_11x13" type="right_before_left" weight_num="4.0" weight_sum="2.32469402449" x="1100.00" y="1300.00" />
    <node avg_slowdown_ratio="0.580453563715" id="node_08x10" type="right_before_left" weight_num="4.0" weight_sum="2.32181425486" x="800.00" y="1000.00" />
    <node avg_slowdown_ratio="0.57667386609" id="node_06x13" type="right_before_left" weight_num="4.0" weight_sum="2.30669546436" x="600.00" y="1300.00" />
    <node avg_slowdown_ratio="0.576313894887" id="node_10x13" type="right_before_left" weight_num="4.0" weight_sum="2.30525557955" x="1000.00" y="1300.00" />
    <node avg_slowdown_ratio="0.571634269255" id="node_07x10" type="right_before_left" weight_num="4.0" weight_sum="2.28653707702" x="700.00" y="1000.00" />
    <node avg_slowdown_ratio="0.570914326852" id="node_11x07" type="right_before_left" weight_num="4.0" weight_sum="2.28365730741" x="1100.00" y="700.00" />
    <node avg_slowdown_ratio="0.56119510439" id="node_15x11" type="right_before_left" weight_num="4.0" weight_sum="2.24478041756" x="1500.00" y="1100.00" />
    <node avg_slowdown_ratio="0.560655147588" id="node_08x12" type="right_before_left" weight_num="4.0" weight_sum="2.24262059035" x="800.00" y="1200.00" />
    <node avg_slowdown_ratio="0.55957523398" id="node_09x09" type="right_before_left" weight_num="4.0" weight_sum="2.23830093592" x="900.00" y="900.00" />
    <node avg_slowdown_ratio="0.559035277178" id="node_06x11" type="right_before_left" weight_num="4.0" weight_sum="2.23614110871" x="600.00" y="1100.00" />
    <node avg_slowdown_ratio="0.558135349172" id="node_13x07" type="right_before_left" weight_num="4.0" weight_sum="2.23254139669" x="1300.00" y="700.00" />
    <node avg_slowdown_ratio="0.55813534917" id="node_13x09" type="right_before_left" weight_num="4.0" weight_sum="2.23254139668" x="1300.00" y="900.00" />
    <node avg_slowdown_ratio="0.55471562275" id="node_11x06" type="right_before_left" weight_num="4.0" weight_sum="2.218862491" x="1100.00" y="600.00" />
    <node avg_slowdown_ratio="0.551835853133" id="node_06x12" type="right_before_left" weight_num="4.0" weight_sum="2.20734341253" x="600.00" y="1200.00" />
    <node avg_slowdown_ratio="0.550755939528" id="node_13x12" type="right_before_left" weight_num="4.0" weight_sum="2.20302375811" x="1300.00" y="1200.00" />
    <node avg_slowdown_ratio="0.547876169907" id="node_12x13" type="right_before_left" weight_num="4.0" weight_sum="2.19150467963" x="1200.00" y="1300.00" />
    <node avg_slowdown_ratio="0.54247660187" id="node_09x13" type="right_before_left" weight_num="4.0" weight_sum="2.16990640748" x="900.00" y="1300.00" />
    <node avg_slowdown_ratio="0.541936645067" id="node_13x13" type="right_before_left" weight_num="4.0" weight_sum="2.16774658027" x="1300.00" y="1300.00" />
    <node avg_slowdown_ratio="0.541216702665" id="node_07x12" type="right_before_left" weight_num="4.0" weight_sum="2.16486681066" x="700.00" y="1200.00" />
    <node avg_slowdown_ratio="0.537796976243" id="node_10x05" type="right_before_left" weight_num="4.0" weight_sum="2.15118790497" x="1000.00" y="500.00" />
    <node avg_slowdown_ratio="0.53437724982" id="node_10x06" type="right_before_left" weight_num="4.0" weight_sum="2.13750899928" x="1000.00" y="600.00" />
    <node avg_slowdown_ratio="0.533837293015" id="node_15x12" type="right_before_left" weight_num="4.0" weight_sum="2.13534917206" x="1500.00" y="1200.00" />
    <node avg_slowdown_ratio="0.531137508998" id="node_06x10" type="right_before_left" weight_num="4.0" weight_sum="2.12455003599" x="600.00" y="1000.00" />
    <node avg_slowdown_ratio="0.528977681788" id="node_12x04" type="right_before_left" weight_num="4.0" weight_sum="2.11591072715" x="1200.00" y="400.00" />
    <node avg_slowdown_ratio="0.526997840175" id="node_11x14" type="right_before_left" weight_num="4.0" weight_sum="2.1079913607" x="1100.00" y="1400.00" />
    <node avg_slowdown_ratio="0.52609791217" id="node_13x08" type="right_before_left" weight_num="4.0" weight_sum="2.10439164868" x="1300.00" y="800.00" />
    <node avg_slowdown_ratio="0.52051835853" id="node_06x08" type="right_before_left" weight_num="4.0" weight_sum="2.08207343412" x="600.00" y="800.00" />
    <node avg_slowdown_ratio="0.519438444923" id="node_14x07" type="right_before_left" weight_num="4.0" weight_sum="2.07775377969" x="1400.00" y="700.00" />
    <node avg_slowdown_ratio="0.519078473723" id="node_14x08" type="right_before_left" weight_num="4.0" weight_sum="2.07631389489" x="1400.00" y="800.00" />
    <node avg_slowdown_ratio="0.517818574513" id="node_13x06" type="right_before_left" weight_num="4.0" weight_sum="2.07127429805" x="1300.00" y="600.00" />
    <node avg_slowdown_ratio="0.51745860331" id="node_05x11" type="right_before_left" weight_num="4.0" weight_sum="2.06983441324" x="500.00" y="1100.00" />
    <node avg_slowdown_ratio="0.516918646507" id="node_14x11" type="right_before_left" weight_num="4.0" weight_sum="2.06767458603" x="1400.00" y="1100.00" />
    <node avg_slowdown_ratio="0.514938804897" id="node_14x12" type="right_before_left" weight_num="4.0" weight_sum="2.05975521959" x="1400.00" y="1200.00" />
    <node avg_slowdown_ratio="0.513138948885" id="node_15x10" type="right_before_left" weight_num="4.0" weight_sum="2.05255579554" x="1500.00" y="1000.00" />
    <node avg_slowdown_ratio="0.508999280057" id="node_12x07" type="right_before_left" weight_num="4.0" weight_sum="2.03599712023" x="1200.00" y="700.00" />
    <node avg_slowdown_ratio="0.505579553635" id="node_11x04" type="right_before_left" weight_num="4.0" weight_sum="2.02231821454" x="1100.00" y="400.00" />
    <node avg_slowdown_ratio="0.50485961123" id="node_12x06" type="right_before_left" weight_num="4.0" weight_sum="2.01943844492" x="1200.00" y="600.00" />
    <node avg_slowdown_ratio="0.504319654428" id="node_11x05" type="right_before_left" weight_num="4.0" weight_sum="2.01727861771" x="1100.00" y="500.00" />
    <node avg_slowdown_ratio="0.502699784018" id="node_05x12" type="right_before_left" weight_num="4.0" weight_sum="2.01079913607" x="500.00" y="1200.00" />
    <node avg_slowdown_ratio="0.5" id="node_10x15" type="right_before_left" weight_num="4.0" weight_sum="2.0" x="1000.00" y="1500.00" />
    <node avg_slowdown_ratio="0.499999999997" id="node_14x06" type="right_before_left" weight_num="4.0" weight_sum="1.99999999999" x="1400.00" y="600.00" />
    <node avg_slowdown_ratio="0.499640028798" id="node_06x09" type="right_before_left" weight_num="4.0" weight_sum="1.99856011519" x="600.00" y="900.00" />
    <node avg_slowdown_ratio="0.499640028795" id="node_14x13" type="right_before_left" weight_num="4.0" weight_sum="1.99856011518" x="1400.00" y="1300.00" />
    <node avg_slowdown_ratio="0.498740100792" id="node_08x06" type="right_before_left" weight_num="4.0" weight_sum="1.99496040317" x="800.00" y="600.00" />
    <node avg_slowdown_ratio="0.497480201583" id="node_07x14" type="right_before_left" weight_num="4.0" weight_sum="1.98992080633" x="700.00" y="1400.00" />
    <node avg_slowdown_ratio="0.497300215983" id="node_06x07" type="right_before_left" weight_num="4.0" weight_sum="1.98920086393" x="600.00" y="700.00" />
    <node avg_slowdown_ratio="0.497120230382" id="node_08x15" type="right_before_left" weight_num="4.0" weight_sum="1.98848092153" x="800.00" y="1500.00" />
    <node avg_slowdown_ratio="0.49496040317" id="node_16x11" type="right_before_left" weight_num="4.0" weight_sum="1.97984161268" x="1600.00" y="1100.00" />
    <node avg_slowdown_ratio="0.493160547158" id="node_10x04" type="right_before_left" weight_num="4.0" weight_sum="1.97264218863" x="1000.00" y="400.00" />
    <node avg_slowdown_ratio="0.49226061915" id="node_05x13" type="right_before_left" weight_num="4.0" weight_sum="1.9690424766" x="500.00" y="1300.00" />
    <node avg_slowdown_ratio="0.487580993523" id="node_13x15" type="right_before_left" weight_num="4.0" weight_sum="1.95032397409" x="1300.00" y="1500.00" />
    <node avg_slowdown_ratio="0.486501079915" id="node_07x15" type="right_before_left" weight_num="4.0" weight_sum="1.94600431966" x="700.00" y="1500.00" />
    <node avg_slowdown_ratio="0.486141108712" id="node_09x06" type="right_before_left" weight_num="4.0" weight_sum="1.94456443485" x="900.00" y="600.00" />
    <node avg_slowdown_ratio="0.486141108712" id="node_11x15" type="right_before_left" weight_num="4.0" weight_sum="1.94456443485" x="1100.00" y="1500.00" />
    <node avg_slowdown_ratio="0.48614110871" id="node_07x07" type="right_before_left" weight_num="4.0" weight_sum="1.94456443484" x="700.00" y="700.00" />
    <node avg_slowdown_ratio="0.4843412527" id="node_09x15" type="right_before_left" weight_num="4.0" weight_sum="1.9373650108" x="900.00" y="1500.00" />
    <node avg_slowdown_ratio="0.48164146868" id="node_13x05" type="right_before_left" weight_num="4.0" weight_sum="1.92656587472" x="1300.00" y="500.00" />
    <node avg_slowdown_ratio="0.480381569475" id="node_10x14" type="right_before_left" weight_num="4.0" weight_sum="1.9215262779" x="1000.00" y="1400.00" />
    <node avg_slowdown_ratio="0.480201583873" id="node_04x07" type="right_before_left" weight_num="4.0" weight_sum="1.92080633549" x="400.00" y="700.00" />
    <node avg_slowdown_ratio="0.479301655868" id="node_09x05" type="right_before_left" weight_num="4.0" weight_sum="1.91720662347" x="900.00" y="500.00" />
    <node avg_slowdown_ratio="0.47822174226" id="node_12x15" type="right_before_left" weight_num="4.0" weight_sum="1.91288696904" x="1200.00" y="1500.00" />
    <node avg_slowdown_ratio="0.47660187185" id="node_05x07" type="right_before_left" weight_num="4.0" weight_sum="1.9064074874" x="500.00" y="700.00" />
    <node avg_slowdown_ratio="0.475881929445" id="node_08x14" type="right_before_left" weight_num="4.0" weight_sum="1.90352771778" x="800.00" y="1400.00" />
    <node avg_slowdown_ratio="0.47516198704" id="node_16x12" type="right_before_left" weight_num="4.0" weight_sum="1.90064794816" x="1600.00" y="1200.00" />
    <node avg_slowdown_ratio="0.473902087835" id="node_12x14" type="right_before_left" weight_num="4.0" weight_sum="1.89560835134" x="1200.00" y="1400.00" />
    <node avg_slowdown_ratio="0.473902087832" id="node_13x14" type="right_before_left" weight_num="4.0" weight_sum="1.89560835133" x="1300.00" y="1400.00" />
    <node avg_slowdown_ratio="0.472642188628" id="node_13x04" type="right_before_left" weight_num="4.0" weight_sum="1.89056875451" x="1300.00" y="400.00" />
    <node avg_slowdown_ratio="0.47210223182" id="node_05x14" type="right_before_left" weight_num="4.0" weight_sum="1.88840892728" x="500.00" y="1400.00" />
    <node avg_slowdown_ratio="0.47210223182" id="node_06x15" type="right_before_left" weight_num="4.0" weight_sum="1.88840892728" x="600.00" y="1500.00" />
    <node avg_slowdown_ratio="0.468142548597" id="node_04x11" type="right_before_left" weight_num="4.0" weight_sum="1.87257019439" x="400.00" y="1100.00" />
    <node avg_slowdown_ratio="0.467602591793" id="node_15x07" type="right_before_left" weight_num="4.0" weight_sum="1.87041036717" x="1500.00" y="700.00" />
    <node avg_slowdown_ratio="0.467242620592" id="node_09x14" type="right_before_left" weight_num="4.0" weight_sum="1.86897048237" x="900.00" y="1400.00" />
    <node avg_slowdown_ratio="0.46706263499" id="node_05x10" type="right_before_left" weight_num="4.0" weight_sum="1.86825053996" x="500.00" y="1000.00" />
    <node avg_slowdown_ratio="0.464542836575" id="node_14x09" type="right_before_left" weight_num="4.0" weight_sum="1.8581713463" x="1400.00" y="900.00" />
    <node avg_slowdown_ratio="0.461303095753" id="node_15x09" type="right_before_left" weight_num="4.0" weight_sum="1.84521238301" x="1500.00" y="900.00" />
    <node avg_slowdown_ratio="0.460043196545" id="node_15x15" type="right_before_left" weight_num="4.0" weight_sum="1.84017278618" x="1500.00" y="1500.00" />
    <node avg_slowdown_ratio="0.458963282937" id="node_04x08" type="right_before_left" weight_num="4.0" weight_sum="1.83585313175" x="400.00" y="800.00" />
    <node avg_slowdown_ratio="0.458783297335" id="node_06x05" type="right_before_left" weight_num="4.0" weight_sum="1.83513318934" x="600.00" y="500.00" />
    <node avg_slowdown_ratio="0.456443484522" id="node_08x05" type="right_before_left" weight_num="4.0" weight_sum="1.82577393809" x="800.00" y="500.00" />
    <node avg_slowdown_ratio="0.455543556515" id="node_09x04" type="right_before_left" weight_num="4.0" weight_sum="1.82217422606" x="900.00" y="400.00" />
    <node avg_slowdown_ratio="0.455183585315" id="node_04x13" type="right_before_left" weight_num="4.0" weight_sum="1.82073434126" x="400.00" y="1300.00" />
    <node avg_slowdown_ratio="0.453563714903" id="node_06x06" type="right_before_left" weight_num="4.0" weight_sum="1.81425485961" x="600.00" y="600.00" />
    <node avg_slowdown_ratio="0.453383729302" id="node_14x05" type="right_before_left" weight_num="4.0" weight_sum="1.81353491721" x="1400.00" y="500.00" />
    <node avg_slowdown_ratio="0.4530237581" id="node_15x06" type="right_before_left" weight_num="4.0" weight_sum="1.8120950324" x="1500.00" y="600.00" />
    <node avg_slowdown_ratio="0.452663786895" id="node_10x16" type="right_before_left" weight_num="4.0" weight_sum="1.81065514758" x="1000.00" y="1600.00" />
    <node avg_slowdown_ratio="0.451943844493" id="node_16x08" type="right_before_left" weight_num="4.0" weight_sum="1.80777537797" x="1600.00" y="800.00" />
    <node avg_slowdown_ratio="0.450683945282" id="node_15x05" type="right_before_left" weight_num="4.0" weight_sum="1.80273578113" x="1500.00" y="500.00" />
    <node avg_slowdown_ratio="0.449424046077" id="node_15x08" type="right_before_left" weight_num="4.0" weight_sum="1.79769618431" x="1500.00" y="800.00" />
    <node avg_slowdown_ratio="0.447804175665" id="node_07x06" type="right_before_left" weight_num="4.0" weight_sum="1.79121670266" x="700.00" y="600.00" />
    <node avg_slowdown_ratio="0.447804175665" id="node_16x07" type="right_before_left" weight_num="4.0" weight_sum="1.79121670266" x="1600.00" y="700.00" />
    <node avg_slowdown_ratio="0.444744420445" id="node_07x05" type="right_before_left" weight_num="4.0" weight_sum="1.77897768178" x="700.00" y="500.00" />
    <node avg_slowdown_ratio="0.444204463642" id="node_06x14" type="right_before_left" weight_num="4.0" weight_sum="1.77681785457" x="600.00" y="1400.00" />
    <node avg_slowdown_ratio="0.444024478043" id="node_16x09" type="right_before_left" weight_num="4.0" weight_sum="1.77609791217" x="1600.00" y="900.00" />
    <node avg_slowdown_ratio="0.44384449244" id="node_16x10" type="right_before_left" weight_num="4.0" weight_sum="1.77537796976" x="1600.00" y="1000.00" />
    <node avg_slowdown_ratio="0.443124550038" id="node_05x08" type="right_before_left" weight_num="4.0" weight_sum="1.77249820015" x="500.00" y="800.00" />
    <node avg_slowdown_ratio="0.44186465083" id="node_11x16" type="right_before_left" weight_num="4.0" weight_sum="1.76745860332" x="1100.00" y="1600.00" />
    <node avg_slowdown_ratio="0.440064794815" id="node_15x13" type="right_before_left" weight_num="4.0" weight_sum="1.76025917926" x="1500.00" y="1300.00" />
    <node avg_slowdown_ratio="0.439164866812" id="node_14x14" type="right_before_left" weight_num="4.0" weight_sum="1.75665946725" x="1400.00" y="1400.00" />
    <node avg_slowdown_ratio="0.43916486681" id="node_04x12" type="right_before_left" weight_num="4.0" weight_sum="1.75665946724" x="400.00" y="1200.00" />
    <node avg_slowdown_ratio="0.43916486681" id="node_05x15" type="right_before_left" weight_num="4.0" weight_sum="1.75665946724" x="500.00" y="1500.00" />
    <node avg_slowdown_ratio="0.438984881208" id="node_14x15" type="right_before_left" weight_num="4.0" weight_sum="1.75593952483" x="1400.00" y="1500.00" />
    <node avg_slowdown_ratio="0.438804895608" id="node_07x16" type="right_before_left" weight_num="4.0" weight_sum="1.75521958243" x="700.00" y="1600.00" />
    <node avg_slowdown_ratio="0.437724982" id="node_10x03" type="right_before_left" weight_num="4.0" weight_sum="1.750899928" x="1000.00" y="300.00" />
    <node avg_slowdown_ratio="0.4375449964" id="node_03x10" type="right_before_left" weight_num="4.0" weight_sum="1.7501799856" x="300.00" y="1000.00" />
    <node avg_slowdown_ratio="0.4375449964" id="node_04x10" type="right_before_left" weight_num="4.0" weight_sum="1.7501799856" x="400.00" y="1000.00" />
    <node avg_slowdown_ratio="0.437005039597" id="node_12x05" type="right_before_left" weight_num="4.0" weight_sum="1.74802015839" x="1200.00" y="500.00" />
    <node avg_slowdown_ratio="0.434125269978" id="node_08x03" type="right_before_left" weight_num="4.0" weight_sum="1.73650107991" x="800.00" y="300.00" />
    <node avg_slowdown_ratio="0.432145428367" id="node_08x04" type="right_before_left" weight_num="4.0" weight_sum="1.72858171347" x="800.00" y="400.00" />
    <node avg_slowdown_ratio="0.431965442765" id="node_05x16" type="right_before_left" weight_num="4.0" weight_sum="1.72786177106" x="500.00" y="1600.00" />
    <node avg_slowdown_ratio="0.431605471563" id="node_17x06" type="right_before_left" weight_num="4.0" weight_sum="1.72642188625" x="1700.00" y="600.00" />
    <node avg_slowdown_ratio="0.431065514757" id="node_11x03" type="right_before_left" weight_num="4.0" weight_sum="1.72426205903" x="1100.00" y="300.00" />
    <node avg_slowdown_ratio="0.429085673148" id="node_17x08" type="right_before_left" weight_num="4.0" weight_sum="1.71634269259" x="1700.00" y="800.00" />
    <node avg_slowdown_ratio="0.428365730743" id="node_10x17" type="right_before_left" weight_num="4.0" weight_sum="1.71346292297" x="1000.00" y="1700.00" />
    <node avg_slowdown_ratio="0.426205903527" id="node_17x11" type="right_before_left" weight_num="4.0" weight_sum="1.70482361411" x="1700.00" y="1100.00" />
    <node avg_slowdown_ratio="0.425305975522" id="node_04x14" type="right_before_left" weight_num="4.0" weight_sum="1.70122390209" x="400.00" y="1400.00" />
    <node avg_slowdown_ratio="0.42476601872" id="node_17x07" type="right_before_left" weight_num="4.0" weight_sum="1.69906407488" x="1700.00" y="700.00" />
    <node avg_slowdown_ratio="0.42476601872" id="node_17x12" type="right_before_left" weight_num="4.0" weight_sum="1.69906407488" x="1700.00" y="1200.00" />
    <node avg_slowdown_ratio="0.422246220302" id="node_05x09" type="right_before_left" weight_num="4.0" weight_sum="1.68898488121" x="500.00" y="900.00" />
    <node avg_slowdown_ratio="0.420806335495" id="node_11x17" type="right_before_left" weight_num="4.0" weight_sum="1.68322534198" x="1100.00" y="1700.00" />
    <node avg_slowdown_ratio="0.42044636429" id="node_05x05" type="right_before_left" weight_num="4.0" weight_sum="1.68178545716" x="500.00" y="500.00" />
    <node avg_slowdown_ratio="0.419906407488" id="node_08x17" type="right_before_left" weight_num="4.0" weight_sum="1.67962562995" x="800.00" y="1700.00" />
    <node avg_slowdown_ratio="0.41864650828" id="node_03x11" type="right_before_left" weight_num="4.0" weight_sum="1.67458603312" x="300.00" y="1100.00" />
    <node avg_slowdown_ratio="0.418286537078" id="node_16x06" type="right_before_left" weight_num="4.0" weight_sum="1.67314614831" x="1600.00" y="600.00" />
    <node avg_slowdown_ratio="0.417746580273" id="node_09x03" type="right_before_left" weight_num="4.0" weight_sum="1.67098632109" x="900.00" y="300.00" />
    <node avg_slowdown_ratio="0.415406767457" id="node_15x04" type="right_before_left" weight_num="4.0" weight_sum="1.66162706983" x="1500.00" y="400.00" />
    <node avg_slowdown_ratio="0.415406767457" id="node_16x13" type="right_before_left" weight_num="4.0" weight_sum="1.66162706983" x="1600.00" y="1300.00" />
    <node avg_slowdown_ratio="0.413786897047" id="node_12x16" type="right_before_left" weight_num="4.0" weight_sum="1.65514758819" x="1200.00" y="1600.00" />
    <node avg_slowdown_ratio="0.410547156227" id="node_04x06" type="right_before_left" weight_num="4.0" weight_sum="1.64218862491" x="400.00" y="600.00" />
    <node avg_slowdown_ratio="0.406947444205" id="node_18x12" type="right_before_left" weight_num="4.0" weight_sum="1.62778977682" x="1800.00" y="1200.00" />
    <node avg_slowdown_ratio="0.404967602592" id="node_16x05" type="right_before_left" weight_num="4.0" weight_sum="1.61987041037" x="1600.00" y="500.00" />
    <node avg_slowdown_ratio="0.40478761699" id="node_06x17" type="right_before_left" weight_num="4.0" weight_sum="1.61915046796" x="600.00" y="1700.00" />
    <node avg_slowdown_ratio="0.40478761699" id="node_16x14" type="right_before_left" weight_num="4.0" weight_sum="1.61915046796" x="1600.00" y="1400.00" />
    <node avg_slowdown_ratio="0.404427645788" id="node_06x16" type="right_before_left" weight_num="4.0" weight_sum="1.61771058315" x="600.00" y="1600.00" />
    <node avg_slowdown_ratio="0.403887688982" id="node_09x16" type="right_before_left" weight_num="4.0" weight_sum="1.61555075593" x="900.00" y="1600.00" />
    <node avg_slowdown_ratio="0.402447804175" id="node_15x14" type="right_before_left" weight_num="4.0" weight_sum="1.6097912167" x="1500.00" y="1400.00" />
    <node avg_slowdown_ratio="0.401367890567" id="node_07x04" type="right_before_left" weight_num="4.0" weight_sum="1.60547156227" x="700.00" y="400.00" />
    <node avg_slowdown_ratio="0.401187904968" id="node_07x17" type="right_before_left" weight_num="4.0" weight_sum="1.60475161987" x="700.00" y="1700.00" />
    <node avg_slowdown_ratio="0.401187904968" id="node_08x16" type="right_before_left" weight_num="4.0" weight_sum="1.60475161987" x="800.00" y="1600.00" />
    <node avg_slowdown_ratio="0.401007919365" id="node_04x09" type="right_before_left" weight_num="4.0" weight_sum="1.60403167746" x="400.00" y="900.00" />
    <node avg_slowdown_ratio="0.399028077755" id="node_12x18" type="right_before_left" weight_num="4.0" weight_sum="1.59611231102" x="1200.00" y="1800.00" />
    <node avg_slowdown_ratio="0.399028077755" id="node_13x16" type="right_before_left" weight_num="4.0" weight_sum="1.59611231102" x="1300.00" y="1600.00" />
    <node avg_slowdown_ratio="0.397588192945" id="node_04x05" type="right_before_left" weight_num="4.0" weight_sum="1.59035277178" x="400.00" y="500.00" />
    <node avg_slowdown_ratio="0.396508279337" id="node_06x03" type="right_before_left" weight_num="4.0" weight_sum="1.58603311735" x="600.00" y="300.00" />
    <node avg_slowdown_ratio="0.39524838013" id="node_03x13" type="right_before_left" weight_num="4.0" weight_sum="1.58099352052" x="300.00" y="1300.00" />
    <node avg_slowdown_ratio="0.394708423325" id="node_07x18" type="right_before_left" weight_num="4.0" weight_sum="1.5788336933" x="700.00" y="1800.00" />
    <node avg_slowdown_ratio="0.394348452123" id="node_08x18" type="right_before_left" weight_num="4.0" weight_sum="1.57739380849" x="800.00" y="1800.00" />
    <node avg_slowdown_ratio="0.393628509718" id="node_13x03" type="right_before_left" weight_num="4.0" weight_sum="1.57451403887" x="1300.00" y="300.00" />
    <node avg_slowdown_ratio="0.39254859611" id="node_03x09" type="right_before_left" weight_num="4.0" weight_sum="1.57019438444" x="300.00" y="900.00" />
    <node avg_slowdown_ratio="0.3907487401" id="node_11x02" type="right_before_left" weight_num="4.0" weight_sum="1.5629949604" x="1100.00" y="200.00" />
    <node avg_slowdown_ratio="0.3907487401" id="node_15x16" type="right_before_left" weight_num="4.0" weight_sum="1.5629949604" x="1500.00" y="1600.00" />
    <node avg_slowdown_ratio="0.3903887689" id="node_04x15" type="right_before_left" weight_num="4.0" weight_sum="1.5615550756" x="400.00" y="1500.00" />
    <node avg_slowdown_ratio="0.388048956083" id="node_12x17" type="right_before_left" weight_num="4.0" weight_sum="1.55219582433" x="1200.00" y="1700.00" />
    <node avg_slowdown_ratio="0.386249100073" id="node_03x07" type="right_before_left" weight_num="4.0" weight_sum="1.54499640029" x="300.00" y="700.00" />
    <node avg_slowdown_ratio="0.386069114472" id="node_14x03" type="right_before_left" weight_num="4.0" weight_sum="1.54427645789" x="1400.00" y="300.00" />
    <node avg_slowdown_ratio="0.386069114472" id="node_16x15" type="right_before_left" weight_num="4.0" weight_sum="1.54427645789" x="1600.00" y="1500.00" />
    <node avg_slowdown_ratio="0.38588912887" id="node_02x11" type="right_before_left" weight_num="4.0" weight_sum="1.54355651548" x="200.00" y="1100.00" />
    <node avg_slowdown_ratio="0.38588912887" id="node_16x04" type="right_before_left" weight_num="4.0" weight_sum="1.54355651548" x="1600.00" y="400.00" />