<?xml version="1.0" encoding="UTF-8"?>

<!-- generated on 02/05/17 12:04:52 by SUMO netconvert Version 0.27.1
<?xml version="1.0" encoding="UTF-8"?>

<configuration xmlns:xsi="http://www.w3.org/2001/XMLSchema-instance" xsi:noNamespaceSchemaLocation="http://sumo.dlr.de/xsd/netconvertConfiguration.xsd">

    <input>
        <node-files value="C:\Users\zs633\capstone\4_gravity_new\test_1\7_displaced\gravity.nod.xml"/>
        <edge-files value="C:\Users\zs633\capstone\4_gravity_new\test_1\7_displaced\gravity.edg.xml"/>
        <connection-files value="C:\Users\zs633\capstone\4_gravity_new\test_1\4_plain\test.con.xml"/>
        <tllogic-files value="C:\Users\zs633\capstone\4_gravity_new\test_1\4_plain\test.tll.xml"/>
    </input>

    <output>
        <output-file value="C:\Users\zs633\capstone\4_gravity_new\test_1\9_output_net\gravity.net.xml"/>
    </output>

    <processing>
        <ignore-errors value="true"/>
        <ignore-errors.edge-type value="true"/>
    </processing>

    <report>
        <verbose value="true"/>
        <xml-validation value="never"/>
        <no-warnings value="true"/>
    </report>

</configuration>
-->

<net version="0.27" xmlns:xsi="http://www.w3.org/2001/XMLSchema-instance" xsi:noNamespaceSchemaLocation="http://sumo.dlr.de/xsd/net_file.xsd">

    <location netOffset="27.70,27.70" convBoundary="0.00,0.00,2055.40,2055.40" origBoundary="-27.70,-27.70,2027.70,2027.70" projParameter="!"/>

    <edge id=":node_00x00_0" function="internal">
        <lane id=":node_00x00_0_0" index="0" disallow="tram rail_urban rail rail_electric ship" speed="13.89" length="2.53" shape="17.03,15.45 16.35,15.56 15.86,15.86 15.56,16.35 15.45,17.03"/>
    </edge>
    <edge id=":node_00x00_1" function="internal">
        <lane id=":node_00x00_1_0" index="0" disallow="tram rail_urban rail rail_electric ship" speed="13.89" length="7.74" shape="12.16,16.98 12.48,14.90 13.40,13.40 14.90,12.48 16.98,12.16"/>
    </edge>
    <edge id=":node_00x01_0" function="internal">
        <lane id=":node_00x01_0_0" index="0" disallow="tram rail_urban rail rail_electric ship" speed="13.89" length="5.13" shape="17.27,115.50 15.85,115.71 14.82,116.30 14.20,117.26 13.97,118.60"/>
    </edge>
    <edge id=":node_00x01_1" function="internal">
        <lane id=":node_00x01_1_0" index="0" disallow="tram rail_urban rail rail_electric ship" speed="13.89" length="10.48" shape="17.27,115.50 14.41,115.14 12.38,113.94 11.19,111.91 10.82,109.05"/>
    </edge>
    <edge id=":node_00x01_2" function="internal">
        <lane id=":node_00x01_2_0" index="0" disallow="tram rail_urban rail rail_electric ship" speed="13.89" length="5.04" shape="14.12,109.10 14.29,110.48 14.87,111.45 15.85,112.02 17.22,112.20"/>
    </edge>
    <edge id=":node_00x01_3" function="internal">
        <lane id=":node_00x01_3_0" index="0" disallow="tram rail_urban rail rail_electric ship" speed="13.89" length="9.50" shape="14.12,109.10 13.97,118.60"/>
    </edge>
    <edge id=":node_00x01_4" function="internal">
        <lane id=":node_00x01_4_0" index="0" disallow="tram rail_urban rail rail_electric ship" speed="13.89" length="9.50" shape="10.67,118.55 10.82,109.05"/>
    </edge>
    <edge id=":node_00x01_5" function="internal">
        <lane id=":node_00x01_5_0" index="0" disallow="tram rail_urban rail rail_electric ship" speed="13.89" length="5.20" shape="10.67,118.55 11.12,115.81 12.36,113.84 12.45,113.79"/>
    </edge>
    <edge id=":node_00x01_6" function="internal">
        <lane id=":node_00x01_6_0" index="0" speed="13.89" length="5.12" shape="12.45,113.79 14.39,112.64 17.22,112.20"/>
    </edge>
    <edge id=":node_00x02_0" function="internal">
        <lane id=":node_00x02_0_0" index="0" disallow="tram rail_urban rail rail_electric ship" speed="13.89" length="5.14" shape="15.70,215.75 14.27,215.97 13.24,216.56 12.61,217.52 12.38,218.86"/>
    </edge>
    <edge id=":node_00x02_1" function="internal">
        <lane id=":node_00x02_1_0" index="0" disallow="tram rail_urban rail rail_electric ship" speed="13.89" length="10.49" shape="15.70,215.75 12.83,215.39 10.80,214.20 9.60,212.17 9.24,209.30"/>
    </edge>
    <edge id=":node_00x02_2" function="internal">
        <lane id=":node_00x02_2_0" index="0" disallow="tram rail_urban rail rail_electric ship" speed="13.89" length="5.04" shape="12.54,209.35 12.71,210.73 13.29,211.71 14.26,212.28 15.64,212.45"/>
    </edge>
    <edge id=":node_00x02_3" function="internal">
        <lane id=":node_00x02_3_0" index="0" disallow="tram rail_urban rail rail_electric ship" speed="13.89" length="9.50" shape="12.54,209.35 12.38,218.86"/>
    </edge>
    <edge id=":node_00x02_4" function="internal">
        <lane id=":node_00x02_4_0" index="0" disallow="tram rail_urban rail rail_electric ship" speed="13.89" length="9.50" shape="9.08,218.80 9.24,209.30"/>
    </edge>
    <edge id=":node_00x02_5" function="internal">
        <lane id=":node_00x02_5_0" index="0" disallow="tram rail_urban rail rail_electric ship" speed="13.89" length="5.10" shape="9.08,218.80 9.53,216.07 10.77,214.10"/>
    </edge>
    <edge id=":node_00x02_6" function="internal">
        <lane id=":node_00x02_6_0" index="0" speed="13.89" length="5.23" shape="10.77,214.10 12.81,212.89 15.64,212.45"/>
    </edge>
    <edge id=":node_00x03_0" function="internal">
        <lane id=":node_00x03_0_0" index="0" disallow="tram rail_urban rail rail_electric ship" speed="13.89" length="5.15" shape="14.01,316.24 12.57,316.46 11.54,317.05 10.91,318.01 10.68,319.35"/>
    </edge>
    <edge id=":node_00x03_1" function="internal">
        <lane id=":node_00x03_1_0" index="0" disallow="tram rail_urban rail rail_electric ship" speed="13.89" length="10.51" shape="14.01,316.24 11.14,315.89 9.10,314.69 7.91,312.66 7.54,309.79"/>
    </edge>
    <edge id=":node_00x03_2" function="internal">
        <lane id=":node_00x03_2_0" index="0" disallow="tram rail_urban rail rail_electric ship" speed="13.89" length="5.04" shape="10.84,309.85 11.02,311.22 11.59,312.20 12.57,312.77 13.95,312.94"/>
    </edge>
    <edge id=":node_00x03_3" function="internal">
        <lane id=":node_00x03_3_0" index="0" disallow="tram rail_urban rail rail_electric ship" speed="13.89" length="9.50" shape="10.84,309.85 10.68,319.35"/>
    </edge>
    <edge id=":node_00x03_4" function="internal">
        <lane id=":node_00x03_4_0" index="0" disallow="tram rail_urban rail rail_electric ship" speed="13.89" length="9.50" shape="7.38,319.29 7.54,309.79"/>
    </edge>
    <edge id=":node_00x03_5" function="internal">
        <lane id=":node_00x03_5_0" index="0" disallow="tram rail_urban rail rail_electric ship" speed="13.89" length="5.10" shape="7.38,319.29 7.83,316.56 9.08,314.59"/>
    </edge>
    <edge id=":node_00x03_6" function="internal">
        <lane id=":node_00x03_6_0" index="0" speed="13.89" length="5.24" shape="9.08,314.59 11.11,313.39 13.95,312.94"/>
    </edge>
    <edge id=":node_00x04_0" function="internal">
        <lane id=":node_00x04_0_0" index="0" disallow="tram rail_urban rail rail_electric ship" speed="13.89" length="5.16" shape="12.24,417.03 10.80,417.25 9.76,417.84 9.13,418.80 8.90,420.14"/>
    </edge>
    <edge id=":node_00x04_1" function="internal">
        <lane id=":node_00x04_1_0" index="0" disallow="tram rail_urban rail rail_electric ship" speed="13.89" length="10.51" shape="12.24,417.03 9.37,416.68 7.33,415.48 6.13,413.45 5.77,410.58"/>
    </edge>
    <edge id=":node_00x04_2" function="internal">
        <lane id=":node_00x04_2_0" index="0" disallow="tram rail_urban rail rail_electric ship" speed="13.89" length="5.05" shape="9.07,410.64 9.24,412.01 9.82,412.99 10.79,413.56 12.17,413.73"/>
    </edge>
    <edge id=":node_00x04_3" function="internal">
        <lane id=":node_00x04_3_0" index="0" disallow="tram rail_urban rail rail_electric ship" speed="13.89" length="9.50" shape="9.07,410.64 8.90,420.14"/>
    </edge>
    <edge id=":node_00x04_4" function="internal">
        <lane id=":node_00x04_4_0" index="0" disallow="tram rail_urban rail rail_electric ship" speed="13.89" length="9.50" shape="5.60,420.08 5.77,410.58"/>
    </edge>
    <edge id=":node_00x04_5" function="internal">
        <lane id=":node_00x04_5_0" index="0" disallow="tram rail_urban rail rail_electric ship" speed="13.89" length="5.09" shape="5.60,420.08 6.05,417.35 7.30,415.38"/>
    </edge>
    <edge id=":node_00x04_6" function="internal">
        <lane id=":node_00x04_6_0" index="0" speed="13.89" length="5.24" shape="7.30,415.38 9.34,414.18 12.17,413.73"/>
    </edge>
    <edge id=":node_00x05_0" function="internal">
        <lane id=":node_00x05_0_0" index="0" disallow="tram rail_urban rail rail_electric ship" speed="13.89" length="5.16" shape="10.45,518.17 9.01,518.39 7.97,518.98 7.34,519.95 7.11,521.28"/>
    </edge>
    <edge id=":node_00x05_1" function="internal">
        <lane id=":node_00x05_1_0" index="0" disallow="tram rail_urban rail rail_electric ship" speed="13.89" length="10.51" shape="10.45,518.17 7.57,517.82 5.54,516.63 4.34,514.59 3.98,511.72"/>
    </edge>
    <edge id=":node_00x05_2" function="internal">
        <lane id=":node_00x05_2_0" index="0" disallow="tram rail_urban rail rail_electric ship" speed="13.89" length="5.05" shape="7.28,511.78 7.45,513.15 8.02,514.13 9.00,514.70 10.38,514.87"/>
    </edge>
    <edge id=":node_00x05_3" function="internal">
        <lane id=":node_00x05_3_0" index="0" disallow="tram rail_urban rail rail_electric ship" speed="13.89" length="9.51" shape="7.28,511.78 7.11,521.28"/>
    </edge>
    <edge id=":node_00x05_4" function="internal">
        <lane id=":node_00x05_4_0" index="0" disallow="tram rail_urban rail rail_electric ship" speed="13.89" length="9.51" shape="3.81,521.22 3.98,511.72"/>
    </edge>
    <edge id=":node_00x05_5" function="internal">
        <lane id=":node_00x05_5_0" index="0" disallow="tram rail_urban rail rail_electric ship" speed="13.89" length="5.20" shape="3.81,521.22 4.26,518.49 5.51,516.53 5.59,516.47"/>
    </edge>
    <edge id=":node_00x05_6" function="internal">
        <lane id=":node_00x05_6_0" index="0" speed="13.89" length="5.14" shape="5.59,516.47 7.55,515.32 10.38,514.87"/>
    </edge>
    <edge id=":node_00x06_0" function="internal">
        <lane id=":node_00x06_0_0" index="0" disallow="tram rail_urban rail rail_electric ship" speed="13.89" length="5.15" shape="8.72,619.71 7.29,619.92 6.25,620.51 5.63,621.48 5.40,622.81"/>
    </edge>
    <edge id=":node_00x06_1" function="internal">
        <lane id=":node_00x06_1_0" index="0" disallow="tram rail_urban rail rail_electric ship" speed="13.89" length="10.51" shape="8.72,619.71 5.85,619.35 3.81,618.16 2.62,616.12 2.25,613.25"/>
    </edge>
    <edge id=":node_00x06_2" function="internal">
        <lane id=":node_00x06_2_0" index="0" disallow="tram rail_urban rail rail_electric ship" speed="13.89" length="5.04" shape="5.55,613.31 5.73,614.69 6.30,615.66 7.28,616.24 8.66,616.41"/>
    </edge>
    <edge id=":node_00x06_3" function="internal">
        <lane id=":node_00x06_3_0" index="0" disallow="tram rail_urban rail rail_electric ship" speed="13.89" length="9.51" shape="5.55,613.31 5.40,622.81"/>
    </edge>
    <edge id=":node_00x06_4" function="internal">
        <lane id=":node_00x06_4_0" index="0" disallow="tram rail_urban rail rail_electric ship" speed="13.89" length="9.51" shape="2.10,622.77 2.25,613.25"/>
    </edge>
    <edge id=":node_00x06_5" function="internal">
        <lane id=":node_00x06_5_0" index="0" disallow="tram rail_urban rail rail_electric ship" speed="13.89" length="5.21" shape="2.10,622.77 2.55,620.03 3.79,618.06 3.88,618.00"/>
    </edge>
    <edge id=":node_00x06_6" function="internal">
        <lane id=":node_00x06_6_0" index="0" speed="13.89" length="5.13" shape="3.88,618.00 5.82,616.85 8.66,616.41"/>
    </edge>
    <edge id=":node_00x07_0" function="internal">
        <lane id=":node_00x07_0_0" index="0" disallow="tram rail_urban rail rail_electric ship" speed="13.89" length="5.13" shape="7.17,721.65 5.74,721.86 4.72,722.45 4.10,723.42 3.88,724.76"/>
    </edge>
    <edge id=":node_00x07_1" function="internal">
        <lane id=":node_00x07_1_0" index="0" disallow="tram rail_urban rail rail_electric ship" speed="13.89" length="10.48" shape="7.17,721.65 4.31,721.28 2.28,720.09 1.08,718.06 0.71,715.20"/>
    </edge>
    <edge id=":node_00x07_2" function="internal">
        <lane id=":node_00x07_2_0" index="0" disallow="tram rail_urban rail rail_electric ship" speed="13.89" length="5.04" shape="4.01,715.25 4.19,716.62 4.76,717.60 5.74,718.17 7.11,718.35"/>
    </edge>
    <edge id=":node_00x07_3" function="internal">
        <lane id=":node_00x07_3_0" index="0" disallow="tram rail_urban rail rail_electric ship" speed="13.89" length="9.51" shape="4.01,715.25 3.88,724.76"/>
    </edge>
    <edge id=":node_00x07_4" function="internal">
        <lane id=":node_00x07_4_0" index="0" disallow="tram rail_urban rail rail_electric ship" speed="13.89" length="9.52" shape="0.58,724.72 0.71,715.20"/>
    </edge>
    <edge id=":node_00x07_5" function="internal">
        <lane id=":node_00x07_5_0" index="0" disallow="tram rail_urban rail rail_electric ship" speed="13.89" length="5.22" shape="0.58,724.72 1.02,721.97 2.25,719.99 2.35,719.94"/>
    </edge>
    <edge id=":node_00x07_6" function="internal">
        <lane id=":node_00x07_6_0" index="0" speed="13.89" length="5.12" shape="2.35,719.94 4.28,718.79 7.11,718.35"/>
    </edge>
    <edge id=":node_00x08_0" function="internal">
        <lane id=":node_00x08_0_0" index="0" disallow="tram rail_urban rail rail_electric ship" speed="13.89" length="5.09" shape="5.91,823.97 4.51,824.17 3.50,824.76 2.89,825.73 2.68,827.07"/>
    </edge>
    <edge id=":node_00x08_1" function="internal">
        <lane id=":node_00x08_1_0" index="0" disallow="tram rail_urban rail rail_electric ship" speed="13.89" length="10.44" shape="5.91,823.97 3.07,823.59 1.04,822.40 -0.15,820.37 -0.53,817.53"/>
    </edge>
    <edge id=":node_00x08_2" function="internal">
        <lane id=":node_00x08_2_0" index="0" disallow="tram rail_urban rail rail_electric ship" speed="13.89" length="5.03" shape="2.77,817.57 2.95,818.94 3.53,819.91 4.50,820.49 5.87,820.67"/>
    </edge>
    <edge id=":node_00x08_3" function="internal">
        <lane id=":node_00x08_3_0" index="0" disallow="tram rail_urban rail rail_electric ship" speed="13.89" length="9.51" shape="2.77,817.57 2.68,827.07"/>
    </edge>
    <edge id=":node_00x08_4" function="internal">
        <lane id=":node_00x08_4_0" index="0" disallow="tram rail_urban rail rail_electric ship" speed="13.89" length="9.52" shape="-0.62,827.05 -0.53,817.53"/>
    </edge>
    <edge id=":node_00x08_5" function="internal">
        <lane id=":node_00x08_5_0" index="0" disallow="tram rail_urban rail rail_electric ship" speed="13.89" length="5.24" shape="-0.62,827.05 -0.20,824.29 1.03,822.30 1.13,822.24"/>
    </edge>
    <edge id=":node_00x08_6" function="internal">
        <lane id=":node_00x08_6_0" index="0" speed="13.89" length="5.10" shape="1.13,822.24 3.05,821.09 5.87,820.67"/>
    </edge>
    <edge id=":node_00x09_0" function="internal">
        <lane id=":node_00x09_0_0" index="0" disallow="tram rail_urban rail rail_electric ship" speed="13.89" length="5.05" shape="5.08,926.58 3.70,926.78 2.71,927.36 2.11,928.33 1.91,929.68"/>
    </edge>
    <edge id=":node_00x09_1" function="internal">
        <lane id=":node_00x09_1_0" index="0" disallow="tram rail_urban rail rail_electric ship" speed="13.89" length="10.39" shape="5.08,926.58 2.25,926.19 0.24,924.99 -0.96,922.98 -1.34,920.15"/>
    </edge>
    <edge id=":node_00x09_2" function="internal">
        <lane id=":node_00x09_2_0" index="0" disallow="tram rail_urban rail rail_electric ship" speed="13.89" length="5.02" shape="1.96,920.18 2.15,921.54 2.72,922.51 3.70,923.09 5.06,923.28"/>
    </edge>
    <edge id=":node_00x09_3" function="internal">
        <lane id=":node_00x09_3_0" index="0" disallow="tram rail_urban rail rail_electric ship" speed="13.89" length="9.51" shape="1.96,920.18 1.91,929.68"/>
    </edge>
    <edge id=":node_00x09_4" function="internal">
        <lane id=":node_00x09_4_0" index="0" disallow="tram rail_urban rail rail_electric ship" speed="13.89" length="9.53" shape="-1.39,929.68 -1.34,920.15"/>
    </edge>
    <edge id=":node_00x09_5" function="internal">
        <lane id=":node_00x09_5_0" index="0" disallow="tram rail_urban rail rail_electric ship" speed="13.89" length="5.27" shape="-1.39,929.68 -0.98,926.89 0.23,924.90 0.34,924.84"/>
    </edge>
    <edge id=":node_00x09_6" function="internal">
        <lane id=":node_00x09_6_0" index="0" speed="13.89" length="5.07" shape="0.34,924.84 2.25,923.69 5.06,923.28"/>
    </edge>
    <edge id=":node_00x10_0" function="internal">
        <lane id=":node_00x10_0_0" index="0" disallow="tram rail_urban rail rail_electric ship" speed="13.89" length="9.53" shape="-1.64,1032.47 -1.64,1022.94"/>
    </edge>
    <edge id=":node_00x10_1" function="internal">
        <lane id=":node_00x10_1_0" index="0" disallow="tram rail_urban rail rail_electric ship" speed="13.89" length="5.30" shape="-1.64,1032.47 -1.24,1029.66 -0.05,1027.66 0.06,1027.59"/>
    </edge>
    <edge id=":node_00x10_6" function="internal">
        <lane id=":node_00x10_6_0" index="0" speed="13.89" length="5.04" shape="0.06,1027.59 1.95,1026.45 4.76,1026.05"/>
    </edge>
    <edge id=":node_00x10_2" function="internal">
        <lane id=":node_00x10_2_0" index="0" disallow="tram rail_urban rail rail_electric ship" speed="13.89" length="5.00" shape="4.76,1029.35 3.40,1029.55 2.43,1030.13 1.85,1031.10 1.66,1032.46"/>
    </edge>
    <edge id=":node_00x10_3" function="internal">
        <lane id=":node_00x10_3_0" index="0" disallow="tram rail_urban rail rail_electric ship" speed="13.89" length="10.34" shape="4.76,1029.35 1.95,1028.95 -0.05,1027.75 -1.24,1025.74 -1.64,1022.94"/>
    </edge>
    <edge id=":node_00x10_4" function="internal">
        <lane id=":node_00x10_4_0" index="0" disallow="tram rail_urban rail rail_electric ship" speed="13.89" length="5.00" shape="1.66,1022.95 1.85,1024.31 2.43,1025.28 3.40,1025.86 4.76,1026.05"/>
    </edge>
    <edge id=":node_00x10_5" function="internal">
        <lane id=":node_00x10_5_0" index="0" disallow="tram rail_urban rail rail_electric ship" speed="13.89" length="9.51" shape="1.66,1022.95 1.66,1032.46"/>
    </edge>
    <edge id=":node_00x11_0" function="internal">
        <lane id=":node_00x11_0_0" index="0" disallow="tram rail_urban rail rail_electric ship" speed="13.89" length="9.53" shape="-1.34,1135.25 -1.39,1125.73"/>
    </edge>
    <edge id=":node_00x11_1" function="internal">
        <lane id=":node_00x11_1_0" index="0" disallow="tram rail_urban rail rail_electric ship" speed="13.89" length="5.31" shape="-1.34,1135.25 -0.96,1132.43 0.24,1130.41 0.34,1130.36"/>
    </edge>
    <edge id=":node_00x11_6" function="internal">
        <lane id=":node_00x11_6_0" index="0" speed="13.89" length="5.09" shape="0.34,1130.36 2.25,1129.21 5.08,1128.83"/>
    </edge>
    <edge id=":node_00x11_2" function="internal">
        <lane id=":node_00x11_2_0" index="0" disallow="tram rail_urban rail rail_electric ship" speed="13.89" length="5.02" shape="5.06,1132.13 3.70,1132.31 2.72,1132.89 2.15,1133.86 1.96,1135.23"/>
    </edge>
    <edge id=":node_00x11_3" function="internal">
        <lane id=":node_00x11_3_0" index="0" disallow="tram rail_urban rail rail_electric ship" speed="13.89" length="10.34" shape="5.06,1132.13 2.25,1131.71 0.23,1130.51 -0.98,1128.51 -1.39,1125.73"/>
    </edge>
    <edge id=":node_00x11_4" function="internal">
        <lane id=":node_00x11_4_0" index="0" disallow="tram rail_urban rail rail_electric ship" speed="13.89" length="5.05" shape="1.91,1125.72 2.11,1127.07 2.71,1128.04 3.70,1128.62 5.08,1128.83"/>
    </edge>
    <edge id=":node_00x11_5" function="internal">
        <lane id=":node_00x11_5_0" index="0" disallow="tram rail_urban rail rail_electric ship" speed="13.89" length="9.51" shape="1.91,1125.72 1.96,1135.23"/>
    </edge>
    <edge id=":node_00x12_0" function="internal">
        <lane id=":node_00x12_0_0" index="0" disallow="tram rail_urban rail rail_electric ship" speed="13.89" length="9.52" shape="-0.53,1237.88 -0.62,1228.36"/>
    </edge>
    <edge id=":node_00x12_1" function="internal">
        <lane id=":node_00x12_1_0" index="0" disallow="tram rail_urban rail rail_electric ship" speed="13.89" length="5.22" shape="-0.53,1237.88 -0.15,1235.03 1.04,1233.01"/>
    </edge>
    <edge id=":node_00x12_6" function="internal">
        <lane id=":node_00x12_6_0" index="0" speed="13.89" length="5.22" shape="1.04,1233.01 3.07,1231.81 5.91,1231.44"/>
    </edge>
    <edge id=":node_00x12_2" function="internal">
        <lane id=":node_00x12_2_0" index="0" disallow="tram rail_urban rail rail_electric ship" speed="13.89" length="5.03" shape="5.87,1234.74 4.50,1234.92 3.53,1235.49 2.95,1236.47 2.77,1237.84"/>
    </edge>
    <edge id=":node_00x12_3" function="internal">
        <lane id=":node_00x12_3_0" index="0" disallow="tram rail_urban rail rail_electric ship" speed="13.89" length="10.34" shape="5.87,1234.74 3.05,1234.31 1.03,1233.10 -0.20,1231.12 -0.62,1228.36"/>
    </edge>
    <edge id=":node_00x12_4" function="internal">
        <lane id=":node_00x12_4_0" index="0" disallow="tram rail_urban rail rail_electric ship" speed="13.89" length="5.09" shape="2.68,1228.33 2.89,1229.68 3.50,1230.64 4.51,1231.23 5.91,1231.44"/>
    </edge>
    <edge id=":node_00x12_5" function="internal">
        <lane id=":node_00x12_5_0" index="0" disallow="tram rail_urban rail rail_electric ship" speed="13.89" length="9.51" shape="2.68,1228.33 2.77,1237.84"/>
    </edge>
    <edge id=":node_00x13_0" function="internal">
        <lane id=":node_00x13_0_0" index="0" disallow="tram rail_urban rail rail_electric ship" speed="13.89" length="9.52" shape="0.71,1340.20 0.58,1330.69"/>
    </edge>
    <edge id=":node_00x13_1" function="internal">
        <lane id=":node_00x13_1_0" index="0" disallow="tram rail_urban rail rail_electric ship" speed="13.89" length="5.24" shape="0.71,1340.20 1.08,1337.34 2.28,1335.31"/>
    </edge>
    <edge id=":node_00x13_6" function="internal">
        <lane id=":node_00x13_6_0" index="0" speed="13.89" length="5.24" shape="2.28,1335.31 4.31,1334.12 7.17,1333.76"/>
    </edge>
    <edge id=":node_00x13_2" function="internal">
        <lane id=":node_00x13_2_0" index="0" disallow="tram rail_urban rail rail_electric ship" speed="13.89" length="5.04" shape="7.11,1337.06 5.74,1337.23 4.76,1337.80 4.19,1338.78 4.01,1340.16"/>
    </edge>
    <edge id=":node_00x13_3" function="internal">
        <lane id=":node_00x13_3_0" index="0" disallow="tram rail_urban rail rail_electric ship" speed="13.89" length="10.34" shape="7.11,1337.06 4.28,1336.62 2.25,1335.41 1.02,1333.43 0.58,1330.69"/>
    </edge>
    <edge id=":node_00x13_4" function="internal">
        <lane id=":node_00x13_4_0" index="0" disallow="tram rail_urban rail rail_electric ship" speed="13.89" length="5.13" shape="3.88,1330.65 4.10,1331.99 4.72,1332.95 5.74,1333.54 7.17,1333.76"/>
    </edge>
    <edge id=":node_00x13_5" function="internal">
        <lane id=":node_00x13_5_0" index="0" disallow="tram rail_urban rail rail_electric ship" speed="13.89" length="9.51" shape="3.88,1330.65 4.01,1340.16"/>
    </edge>
    <edge id=":node_00x14_0" function="internal">
        <lane id=":node_00x14_0_0" index="0" disallow="tram rail_urban rail rail_electric ship" speed="13.89" length="9.51" shape="2.25,1442.15 2.10,1432.64"/>
    </edge>
    <edge id=":node_00x14_1" function="internal">
        <lane id=":node_00x14_1_0" index="0" disallow="tram rail_urban rail rail_electric ship" speed="13.89" length="5.25" shape="2.25,1442.15 2.62,1439.28 3.81,1437.25"/>
    </edge>
    <edge id=":node_00x14_6" function="internal">
        <lane id=":node_00x14_6_0" index="0" speed="13.89" length="5.25" shape="3.81,1437.25 5.85,1436.05 8.72,1435.70"/>
    </edge>
    <edge id=":node_00x14_2" function="internal">
        <lane id=":node_00x14_2_0" index="0" disallow="tram rail_urban rail rail_electric ship" speed="13.89" length="5.04" shape="8.66,1439.00 7.28,1439.17 6.30,1439.74 5.73,1440.72 5.55,1442.09"/>
    </edge>
    <edge id=":node_00x14_3" function="internal">
        <lane id=":node_00x14_3_0" index="0" disallow="tram rail_urban rail rail_electric ship" speed="13.89" length="10.34" shape="8.66,1439.00 5.82,1438.55 3.79,1437.35 2.55,1435.37 2.10,1432.64"/>
    </edge>
    <edge id=":node_00x14_4" function="internal">
        <lane id=":node_00x14_4_0" index="0" disallow="tram rail_urban rail rail_electric ship" speed="13.89" length="5.15" shape="5.40,1432.59 5.63,1433.93 6.25,1434.89 7.29,1435.48 8.72,1435.70"/>
    </edge>
    <edge id=":node_00x14_5" function="internal">
        <lane id=":node_00x14_5_0" index="0" disallow="tram rail_urban rail rail_electric ship" speed="13.89" length="9.51" shape="5.40,1432.59 5.55,1442.09"/>
    </edge>
    <edge id=":node_00x15_0" function="internal">
        <lane id=":node_00x15_0_0" index="0" disallow="tram rail_urban rail rail_electric ship" speed="13.89" length="9.51" shape="3.98,1543.69 3.81,1534.18"/>
    </edge>
    <edge id=":node_00x15_1" function="internal">
        <lane id=":node_00x15_1_0" index="0" disallow="tram rail_urban rail rail_electric ship" speed="13.89" length="5.26" shape="3.98,1543.69 4.34,1540.81 5.54,1538.78"/>
    </edge>
    <edge id=":node_00x15_6" function="internal">
        <lane id=":node_00x15_6_0" index="0" speed="13.89" length="5.26" shape="5.54,1538.78 7.57,1537.59 10.45,1537.23"/>
    </edge>
    <edge id=":node_00x15_2" function="internal">
        <lane id=":node_00x15_2_0" index="0" disallow="tram rail_urban rail rail_electric ship" speed="13.89" length="5.05" shape="10.38,1540.53 9.00,1540.70 8.02,1541.27 7.45,1542.25 7.28,1543.63"/>
    </edge>
    <edge id=":node_00x15_3" function="internal">
        <lane id=":node_00x15_3_0" index="0" disallow="tram rail_urban rail rail_electric ship" speed="13.89" length="10.34" shape="10.38,1540.53 7.55,1540.08 5.51,1538.88 4.26,1536.91 3.81,1534.18"/>
    </edge>
    <edge id=":node_00x15_4" function="internal">
        <lane id=":node_00x15_4_0" index="0" disallow="tram rail_urban rail rail_electric ship" speed="13.89" length="5.16" shape="7.11,1534.12 7.34,1535.46 7.97,1536.42 9.01,1537.01 10.45,1537.23"/>
    </edge>
    <edge id=":node_00x15_5" function="internal">
        <lane id=":node_00x15_5_0" index="0" disallow="tram rail_urban rail rail_electric ship" speed="13.89" length="9.51" shape="7.11,1534.12 7.28,1543.63"/>
    </edge>
    <edge id=":node_00x16_0" function="internal">
        <lane id=":node_00x16_0_0" index="0" disallow="tram rail_urban rail rail_electric ship" speed="13.89" length="9.50" shape="5.77,1644.83 5.60,1635.32"/>
    </edge>
    <edge id=":node_00x16_1" function="internal">
        <lane id=":node_00x16_1_0" index="0" disallow="tram rail_urban rail rail_electric ship" speed="13.89" length="5.26" shape="5.77,1644.83 6.13,1641.95 7.33,1639.92"/>
    </edge>
    <edge id=":node_00x16_6" function="internal">
        <lane id=":node_00x16_6_0" index="0" speed="13.89" length="5.26" shape="7.33,1639.92 9.37,1638.73 12.24,1638.37"/>
    </edge>
    <edge id=":node_00x16_2" function="internal">
        <lane id=":node_00x16_2_0" index="0" disallow="tram rail_urban rail rail_electric ship" speed="13.89" length="5.05" shape="12.17,1641.67 10.79,1641.84 9.82,1642.41 9.24,1643.39 9.07,1644.77"/>
    </edge>
    <edge id=":node_00x16_3" function="internal">
        <lane id=":node_00x16_3_0" index="0" disallow="tram rail_urban rail rail_electric ship" speed="13.89" length="10.33" shape="12.17,1641.67 9.34,1641.23 7.30,1640.02 6.05,1638.05 5.60,1635.32"/>
    </edge>
    <edge id=":node_00x16_4" function="internal">
        <lane id=":node_00x16_4_0" index="0" disallow="tram rail_urban rail rail_electric ship" speed="13.89" length="5.16" shape="8.90,1635.27 9.13,1636.60 9.76,1637.56 10.80,1638.15 12.24,1638.37"/>
    </edge>
    <edge id=":node_00x16_5" function="internal">
        <lane id=":node_00x16_5_0" index="0" disallow="tram rail_urban rail rail_electric ship" speed="13.89" length="9.50" shape="8.90,1635.27 9.07,1644.77"/>
    </edge>
    <edge id=":node_00x17_0" function="internal">
        <lane id=":node_00x17_0_0" index="0" disallow="tram rail_urban rail rail_electric ship" speed="13.89" length="9.50" shape="7.54,1745.61 7.38,1736.11"/>
    </edge>
    <edge id=":node_00x17_1" function="internal">
        <lane id=":node_00x17_1_0" index="0" disallow="tram rail_urban rail rail_electric ship" speed="13.89" length="5.25" shape="7.54,1745.61 7.91,1742.74 9.10,1740.71"/>
    </edge>
    <edge id=":node_00x17_6" function="internal">
        <lane id=":node_00x17_6_0" index="0" speed="13.89" length="5.25" shape="9.10,1740.71 11.14,1739.52 14.01,1739.16"/>
    </edge>
    <edge id=":node_00x17_2" function="internal">
        <lane id=":node_00x17_2_0" index="0" disallow="tram rail_urban rail rail_electric ship" speed="13.89" length="5.04" shape="13.95,1742.46 12.57,1742.63 11.59,1743.20 11.02,1744.18 10.84,1745.56"/>
    </edge>
    <edge id=":node_00x17_3" function="internal">
        <lane id=":node_00x17_3_0" index="0" disallow="tram rail_urban rail rail_electric ship" speed="13.89" length="10.33" shape="13.95,1742.46 11.11,1742.02 9.08,1740.81 7.83,1738.84 7.38,1736.11"/>
    </edge>
    <edge id=":node_00x17_4" function="internal">
        <lane id=":node_00x17_4_0" index="0" disallow="tram rail_urban rail rail_electric ship" speed="13.89" length="5.15" shape="10.68,1736.06 10.91,1737.39 11.54,1738.35 12.57,1738.94 14.01,1739.16"/>
    </edge>
    <edge id=":node_00x17_5" function="internal">
        <lane id=":node_00x17_5_0" index="0" disallow="tram rail_urban rail rail_electric ship" speed="13.89" length="9.50" shape="10.68,1736.06 10.84,1745.56"/>
    </edge>