<?xml version="1.0" encoding="UTF-8"?>

<!-- generated on 11/30/16 00:23:01 by SUMO netconvert Version 0.27.1
<?xml version="1.0" encoding="UTF-8"?>

<configuration xmlns:xsi="http://www.w3.org/2001/XMLSchema-instance" xsi:noNamespaceSchemaLocation="http://sumo.dlr.de/xsd/netconvertConfiguration.xsd">

    <input>
        <node-files value="C:\Users\zs633\Capstone\4_gravity_new\test_1\7_displaced\gravity.nod.xml"/>
        <edge-files value="C:\Users\zs633\Capstone\4_gravity_new\test_1\7_displaced\gravity.edg.xml"/>
        <connection-files value="C:\Users\zs633\Capstone\4_gravity_new\test_1\4_plain\test.con.xml"/>
        <tllogic-files value="C:\Users\zs633\Capstone\4_gravity_new\test_1\4_plain\test.tll.xml"/>
    </input>

    <output>
        <output-file value="C:\Users\zs633\Capstone\4_gravity_new\test_1\9_output_net\gravity.net.xml"/>
    </output>

    <processing>
        <ignore-errors value="true"/>
        <ignore-errors.edge-type value="true"/>
    </processing>

    <report>
        <verbose value="true"/>
        <xml-validation value="never"/>
        <no-warnings value="true"/>
    </report>

</configuration>
-->

<net version="0.27" xmlns:xsi="http://www.w3.org/2001/XMLSchema-instance" xsi:noNamespaceSchemaLocation="http://sumo.dlr.de/xsd/net_file.xsd">

    <location netOffset="9092.80,9092.80" convBoundary="0.00,0.00,20185.60,20185.60" origBoundary="-9092.80,-9092.80,11092.80,11092.80" projParameter="!"/>

    <edge id=":node_00x00_0" function="internal">
        <lane id=":node_00x00_0_0" index="0" disallow="tram rail_urban rail rail_electric ship" speed="13.89" length="2.37" shape="9060.46,9058.95 9059.83,9059.08 9059.37,9059.37 9059.08,9059.83 9058.95,9060.46"/>
    </edge>
    <edge id=":node_00x00_1" function="internal">
        <lane id=":node_00x00_1_0" index="0" disallow="tram rail_urban rail rail_electric ship" speed="13.89" length="7.26" shape="9055.66,9060.26 9056.04,9058.34 9056.93,9056.93 9058.34,9056.04 9060.26,9055.66"/>
    </edge>
    <edge id=":node_00x01_0" function="internal">
        <lane id=":node_00x01_0_0" index="0" disallow="tram rail_urban rail rail_electric ship" speed="13.89" length="5.57" shape="9057.05,9157.16 9055.41,9157.45 9054.20,9158.07 9053.44,9159.03 9053.12,9160.31"/>
    </edge>
    <edge id=":node_00x01_1" function="internal">
        <lane id=":node_00x01_1_0" index="0" disallow="tram rail_urban rail rail_electric ship" speed="13.89" length="10.98" shape="9057.05,9157.16 9054.00,9156.93 9051.87,9155.76 9050.68,9153.65 9050.42,9150.59"/>
    </edge>
    <edge id=":node_00x01_2" function="internal">
        <lane id=":node_00x01_2_0" index="0" disallow="tram rail_urban rail rail_electric ship" speed="13.89" length="5.16" shape="9053.71,9150.78 9053.83,9152.22 9054.39,9153.21 9055.39,9153.76 9056.83,9153.87"/>
    </edge>
    <edge id=":node_00x01_3" function="internal">
        <lane id=":node_00x01_3_0" index="0" disallow="tram rail_urban rail rail_electric ship" speed="13.89" length="9.54" shape="9053.71,9150.78 9053.12,9160.31"/>
    </edge>
    <edge id=":node_00x01_4" function="internal">
        <lane id=":node_00x01_4_0" index="0" disallow="tram rail_urban rail rail_electric ship" speed="13.89" length="9.52" shape="9049.83,9160.09 9050.42,9150.59"/>
    </edge>
    <edge id=":node_00x01_5" function="internal">
        <lane id=":node_00x01_5_0" index="0" disallow="tram rail_urban rail rail_electric ship" speed="13.89" length="4.94" shape="9049.83,9160.09 9050.41,9157.54 9051.77,9155.65"/>
    </edge>
    <edge id=":node_00x01_6" function="internal">
        <lane id=":node_00x01_6_0" index="0" speed="13.89" length="5.44" shape="9051.77,9155.65 9053.91,9154.43 9056.83,9153.87"/>
    </edge>
    <edge id=":node_00x02_0" function="internal">
        <lane id=":node_00x02_0_0" index="0" disallow="tram rail_urban rail rail_electric ship" speed="13.89" length="5.66" shape="9050.60,9255.96 9048.91,9256.27 9047.67,9256.91 9046.88,9257.86 9046.55,9259.13"/>
    </edge>
    <edge id=":node_00x02_1" function="internal">
        <lane id=":node_00x02_1_0" index="0" disallow="tram rail_urban rail rail_electric ship" speed="13.89" length="11.09" shape="9050.60,9255.96 9047.50,9255.76 9045.35,9254.60 9044.16,9252.47 9043.92,9249.38"/>
    </edge>
    <edge id=":node_00x02_2" function="internal">
        <lane id=":node_00x02_2_0" index="0" disallow="tram rail_urban rail rail_electric ship" speed="13.89" length="5.18" shape="9047.21,9249.59 9047.33,9251.04 9047.88,9252.04 9048.89,9252.58 9050.34,9252.67"/>
    </edge>
    <edge id=":node_00x02_3" function="internal">
        <lane id=":node_00x02_3_0" index="0" disallow="tram rail_urban rail rail_electric ship" speed="13.89" length="9.56" shape="9047.21,9249.59 9046.55,9259.13"/>
    </edge>
    <edge id=":node_00x02_4" function="internal">
        <lane id=":node_00x02_4_0" index="0" disallow="tram rail_urban rail rail_electric ship" speed="13.89" length="9.54" shape="9043.26,9258.89 9043.92,9249.38"/>
    </edge>
    <edge id=":node_00x02_5" function="internal">
        <lane id=":node_00x02_5_0" index="0" disallow="tram rail_urban rail rail_electric ship" speed="13.89" length="4.92" shape="9043.26,9258.89 9043.86,9256.37 9045.24,9254.49"/>
    </edge>
    <edge id=":node_00x02_6" function="internal">
        <lane id=":node_00x02_6_0" index="0" speed="13.89" length="5.48" shape="9045.24,9254.49 9047.40,9253.26 9050.34,9252.67"/>
    </edge>
    <edge id=":node_00x03_0" function="internal">
        <lane id=":node_00x03_0_0" index="0" disallow="tram rail_urban rail rail_electric ship" speed="13.89" length="5.76" shape="9043.33,9355.49 9041.59,9355.83 9040.32,9356.47 9039.51,9357.43 9039.16,9358.69"/>
    </edge>
    <edge id=":node_00x03_1" function="internal">
        <lane id=":node_00x03_1_0" index="0" disallow="tram rail_urban rail rail_electric ship" speed="13.89" length="11.20" shape="9043.33,9355.49 9040.19,9355.33 9038.02,9354.18 9036.82,9352.03 9036.61,9348.89"/>
    </edge>
    <edge id=":node_00x03_2" function="internal">
        <lane id=":node_00x03_2_0" index="0" disallow="tram rail_urban rail rail_electric ship" speed="13.89" length="5.21" shape="9039.90,9349.14 9040.00,9350.60 9040.55,9351.59 9041.56,9352.13 9043.02,9352.21"/>
    </edge>
    <edge id=":node_00x03_3" function="internal">
        <lane id=":node_00x03_3_0" index="0" disallow="tram rail_urban rail rail_electric ship" speed="13.89" length="9.58" shape="9039.90,9349.14 9039.16,9358.69"/>
    </edge>
    <edge id=":node_00x03_4" function="internal">
        <lane id=":node_00x03_4_0" index="0" disallow="tram rail_urban rail rail_electric ship" speed="13.89" length="9.56" shape="9035.88,9358.43 9036.61,9348.89"/>
    </edge>
    <edge id=":node_00x03_5" function="internal">
        <lane id=":node_00x03_5_0" index="0" disallow="tram rail_urban rail rail_electric ship" speed="13.89" length="4.90" shape="9035.88,9358.43 9036.49,9355.94 9037.89,9354.07"/>
    </edge>
    <edge id=":node_00x03_6" function="internal">
        <lane id=":node_00x03_6_0" index="0" speed="13.89" length="5.53" shape="9037.89,9354.07 9040.06,9352.83 9043.02,9352.21"/>
    </edge>
    <edge id=":node_00x04_0" function="internal">
        <lane id=":node_00x04_0_0" index="0" disallow="tram rail_urban rail rail_electric ship" speed="13.89" length="5.84" shape="9035.35,9456.08 9033.57,9456.44 9032.27,9457.10 9031.45,9458.05 9031.09,9459.31"/>
    </edge>
    <edge id=":node_00x04_1" function="internal">
        <lane id=":node_00x04_1_0" index="0" disallow="tram rail_urban rail rail_electric ship" speed="13.89" length="11.30" shape="9035.35,9456.08 9032.17,9455.95 9029.98,9454.81 9028.78,9452.65 9028.58,9449.47"/>
    </edge>
    <edge id=":node_00x04_2" function="internal">
        <lane id=":node_00x04_2_0" index="0" disallow="tram rail_urban rail rail_electric ship" speed="13.89" length="5.23" shape="9031.87,9449.74 9031.96,9451.21 9032.52,9452.21 9033.53,9452.74 9035.00,9452.80"/>
    </edge>
    <edge id=":node_00x04_3" function="internal">
        <lane id=":node_00x04_3_0" index="0" disallow="tram rail_urban rail rail_electric ship" speed="13.89" length="9.61" shape="9031.87,9449.74 9031.09,9459.31"/>
    </edge>
    <edge id=":node_00x04_4" function="internal">
        <lane id=":node_00x04_4_0" index="0" disallow="tram rail_urban rail rail_electric ship" speed="13.89" length="9.60" shape="9027.80,9459.04 9028.58,9449.47"/>
    </edge>
    <edge id=":node_00x04_5" function="internal">
        <lane id=":node_00x04_5_0" index="0" disallow="tram rail_urban rail rail_electric ship" speed="13.89" length="4.88" shape="9027.80,9459.04 9028.43,9456.57 9029.83,9454.71"/>
    </edge>
    <edge id=":node_00x04_6" function="internal">
        <lane id=":node_00x04_6_0" index="0" speed="13.89" length="5.58" shape="9029.83,9454.71 9032.03,9453.45 9035.00,9452.80"/>
    </edge>
    <edge id=":node_00x05_0" function="internal">
        <lane id=":node_00x05_0_0" index="0" disallow="tram rail_urban rail rail_electric ship" speed="13.89" length="5.89" shape="9026.90,9558.08 9025.11,9558.45 9023.79,9559.12 9022.96,9560.09 9022.60,9561.34"/>
    </edge>
    <edge id=":node_00x05_1" function="internal">
        <lane id=":node_00x05_1_0" index="0" disallow="tram rail_urban rail rail_electric ship" speed="13.89" length="11.37" shape="9026.90,9558.08 9023.70,9557.98 9021.50,9556.85 9020.30,9554.68 9020.11,9551.48"/>
    </edge>
    <edge id=":node_00x05_2" function="internal">
        <lane id=":node_00x05_2_0" index="0" disallow="tram rail_urban rail rail_electric ship" speed="13.89" length="5.25" shape="9023.39,9551.75 9023.48,9553.23 9024.04,9554.23 9025.05,9554.75 9026.53,9554.80"/>
    </edge>
    <edge id=":node_00x05_3" function="internal">
        <lane id=":node_00x05_3_0" index="0" disallow="tram rail_urban rail rail_electric ship" speed="13.89" length="9.63" shape="9023.39,9551.75 9022.60,9561.34"/>
    </edge>
    <edge id=":node_00x05_4" function="internal">
        <lane id=":node_00x05_4_0" index="0" disallow="tram rail_urban rail rail_electric ship" speed="13.89" length="9.63" shape="9019.31,9561.08 9020.11,9551.48"/>
    </edge>
    <edge id=":node_00x05_5" function="internal">
        <lane id=":node_00x05_5_0" index="0" disallow="tram rail_urban rail rail_electric ship" speed="13.89" length="4.88" shape="9019.31,9561.08 9019.93,9558.62 9021.34,9556.75"/>
    </edge>
    <edge id=":node_00x05_6" function="internal">
        <lane id=":node_00x05_6_0" index="0" speed="13.89" length="5.61" shape="9021.34,9556.75 9023.54,9555.48 9026.53,9554.80"/>
    </edge>
    <edge id=":node_00x06_0" function="internal">
        <lane id=":node_00x06_0_0" index="0" disallow="tram rail_urban rail rail_electric ship" speed="13.89" length="5.89" shape="9018.43,9661.82 9016.64,9662.20 9015.33,9662.88 9014.50,9663.85 9014.15,9665.11"/>
    </edge>
    <edge id=":node_00x06_1" function="internal">
        <lane id=":node_00x06_1_0" index="0" disallow="tram rail_urban rail rail_electric ship" speed="13.89" length="11.37" shape="9018.43,9661.82 9015.22,9661.73 9013.02,9660.60 9011.81,9658.44 9011.62,9655.23"/>
    </edge>
    <edge id=":node_00x06_2" function="internal">
        <lane id=":node_00x06_2_0" index="0" disallow="tram rail_urban rail rail_electric ship" speed="13.89" length="5.25" shape="9014.91,9655.50 9015.00,9656.98 9015.55,9657.98 9016.57,9658.50 9018.05,9658.55"/>
    </edge>
    <edge id=":node_00x06_3" function="internal">
        <lane id=":node_00x06_3_0" index="0" disallow="tram rail_urban rail rail_electric ship" speed="13.89" length="9.63" shape="9014.91,9655.50 9014.15,9665.11"/>
    </edge>
    <edge id=":node_00x06_4" function="internal">
        <lane id=":node_00x06_4_0" index="0" disallow="tram rail_urban rail rail_electric ship" speed="13.89" length="9.66" shape="9010.86,9664.86 9011.62,9655.23"/>
    </edge>
    <edge id=":node_00x06_5" function="internal">
        <lane id=":node_00x06_5_0" index="0" disallow="tram rail_urban rail rail_electric ship" speed="13.89" length="4.89" shape="9010.86,9664.86 9011.47,9662.39 9012.86,9660.51"/>
    </edge>
    <edge id=":node_00x06_6" function="internal">
        <lane id=":node_00x06_6_0" index="0" speed="13.89" length="5.61" shape="9012.86,9660.51 9015.06,9659.23 9018.05,9658.55"/>
    </edge>
    <edge id=":node_00x07_0" function="internal">
        <lane id=":node_00x07_0_0" index="0" disallow="tram rail_urban rail rail_electric ship" speed="13.89" length="5.79" shape="9010.53,9767.53 9008.78,9767.89 9007.50,9768.56 9006.71,9769.53 9006.38,9770.80"/>
    </edge>
    <edge id=":node_00x07_1" function="internal">
        <lane id=":node_00x07_1_0" index="0" disallow="tram rail_urban rail rail_electric ship" speed="13.89" length="11.28" shape="9010.53,9767.53 9007.36,9767.41 9005.17,9766.27 9003.96,9764.12 9003.74,9760.96"/>
    </edge>
    <edge id=":node_00x07_2" function="internal">
        <lane id=":node_00x07_2_0" index="0" disallow="tram rail_urban rail rail_electric ship" speed="13.89" length="5.23" shape="9007.03,9761.20 9007.14,9762.67 9007.69,9763.67 9008.71,9764.19 9010.18,9764.25"/>
    </edge>
    <edge id=":node_00x07_3" function="internal">
        <lane id=":node_00x07_3_0" index="0" disallow="tram rail_urban rail rail_electric ship" speed="13.89" length="9.62" shape="9007.03,9761.20 9006.38,9770.80"/>
    </edge>
    <edge id=":node_00x07_4" function="internal">
        <lane id=":node_00x07_4_0" index="0" disallow="tram rail_urban rail rail_electric ship" speed="13.89" length="9.67" shape="9003.09,9770.60 9003.74,9760.96"/>
    </edge>
    <edge id=":node_00x07_5" function="internal">
        <lane id=":node_00x07_5_0" index="0" disallow="tram rail_urban rail rail_electric ship" speed="13.89" length="4.92" shape="9003.09,9770.60 9003.66,9768.09 9005.03,9766.19"/>
    </edge>
    <edge id=":node_00x07_6" function="internal">
        <lane id=":node_00x07_6_0" index="0" speed="13.89" length="5.57" shape="9005.03,9766.19 9007.20,9764.91 9010.18,9764.25"/>
    </edge>
    <edge id=":node_00x08_0" function="internal">
        <lane id=":node_00x08_0_0" index="0" disallow="tram rail_urban rail rail_electric ship" speed="13.89" length="5.60" shape="9003.95,9875.16 9002.29,9875.48 9001.09,9876.13 9000.35,9877.10 9000.06,9878.39"/>
    </edge>
    <edge id=":node_00x08_1" function="internal">
        <lane id=":node_00x08_1_0" index="0" disallow="tram rail_urban rail rail_electric ship" speed="13.89" length="11.08" shape="9003.95,9875.16 9000.86,9874.98 8998.71,9873.82 8997.51,9871.70 8997.25,9868.62"/>
    </edge>
    <edge id=":node_00x08_2" function="internal">
        <lane id=":node_00x08_2_0" index="0" disallow="tram rail_urban rail rail_electric ship" speed="13.89" length="5.18" shape="9000.54,9868.81 9000.66,9870.26 9001.23,9871.25 9002.23,9871.79 9003.68,9871.87"/>
    </edge>
    <edge id=":node_00x08_3" function="internal">
        <lane id=":node_00x08_3_0" index="0" disallow="tram rail_urban rail rail_electric ship" speed="13.89" length="9.59" shape="9000.54,9868.81 9000.06,9878.39"/>
    </edge>
    <edge id=":node_00x08_4" function="internal">
        <lane id=":node_00x08_4_0" index="0" disallow="tram rail_urban rail rail_electric ship" speed="13.89" length="9.66" shape="8996.76,9878.26 8997.25,9868.62"/>
    </edge>
    <edge id=":node_00x08_5" function="internal">
        <lane id=":node_00x08_5_0" index="0" disallow="tram rail_urban rail rail_electric ship" speed="13.89" length="5.08" shape="8996.76,9878.26 8997.28,9875.68 8998.61,9873.75 8998.69,9873.70"/>
    </edge>
    <edge id=":node_00x08_6" function="internal">
        <lane id=":node_00x08_6_0" index="0" speed="13.89" length="5.38" shape="8998.69,9873.70 9000.74,9872.48 9003.68,9871.87"/>
    </edge>
    <edge id=":node_00x09_0" function="internal">
        <lane id=":node_00x09_0_0" index="0" disallow="tram rail_urban rail rail_electric ship" speed="13.89" length="5.33" shape="8999.46,9984.37 8997.94,9984.63 8996.84,9985.24 8996.18,9986.21 8995.94,9987.54"/>
    </edge>
    <edge id=":node_00x09_1" function="internal">
        <lane id=":node_00x09_1_0" index="0" disallow="tram rail_urban rail rail_electric ship" speed="13.89" length="10.76" shape="8999.46,9984.37 8996.49,9984.08 8994.41,9982.90 8993.21,9980.82 8992.90,9977.86"/>
    </edge>
    <edge id=":node_00x09_2" function="internal">
        <lane id=":node_00x09_2_0" index="0" disallow="tram rail_urban rail rail_electric ship" speed="13.89" length="5.10" shape="8996.20,9977.98 8996.34,9979.39 8996.91,9980.38 8997.90,9980.94 8999.31,9981.07"/>
    </edge>
    <edge id=":node_00x09_3" function="internal">
        <lane id=":node_00x09_3_0" index="0" disallow="tram rail_urban rail rail_electric ship" speed="13.89" length="9.56" shape="8996.20,9977.98 8995.94,9987.54"/>
    </edge>
    <edge id=":node_00x09_4" function="internal">
        <lane id=":node_00x09_4_0" index="0" disallow="tram rail_urban rail rail_electric ship" speed="13.89" length="9.64" shape="8992.64,9987.49 8992.90,9977.86"/>
    </edge>
    <edge id=":node_00x09_5" function="internal">
        <lane id=":node_00x09_5_0" index="0" disallow="tram rail_urban rail rail_electric ship" speed="13.89" length="5.21" shape="8992.64,9987.49 8993.09,9984.80 8994.35,9982.83 8994.47,9982.76"/>
    </edge>
    <edge id=":node_00x09_6" function="internal">
        <lane id=":node_00x09_6_0" index="0" speed="13.89" length="5.21" shape="8994.47,9982.76 8996.42,9981.59 8999.31,9981.07"/>
    </edge>
    <edge id=":node_00x10_0" function="internal">
        <lane id=":node_00x10_0_0" index="0" disallow="tram rail_urban rail rail_electric ship" speed="13.89" length="9.63" shape="8991.29,10097.62 8991.29,10087.98"/>
    </edge>
    <edge id=":node_00x10_1" function="internal">
        <lane id=":node_00x10_1_0" index="0" disallow="tram rail_urban rail rail_electric ship" speed="13.89" length="5.37" shape="8991.29,10097.62 8991.65,10094.79 8992.84,10092.77 8992.99,10092.68"/>
    </edge>
    <edge id=":node_00x10_6" function="internal">
        <lane id=":node_00x10_6_0" index="0" speed="13.89" length="5.02" shape="8992.99,10092.68 8994.84,10091.55 8997.67,10091.15"/>
    </edge>
    <edge id=":node_00x10_2" function="internal">
        <lane id=":node_00x10_2_0" index="0" disallow="tram rail_urban rail rail_electric ship" speed="13.89" length="5.02" shape="8997.67,10094.45 8996.30,10094.65 8995.34,10095.23 8994.76,10096.21 8994.59,10097.57"/>
    </edge>
    <edge id=":node_00x10_3" function="internal">
        <lane id=":node_00x10_3_0" index="0" disallow="tram rail_urban rail rail_electric ship" speed="13.89" length="10.39" shape="8997.67,10094.45 8994.84,10094.05 8992.84,10092.83 8991.65,10090.81 8991.29,10087.98"/>
    </edge>
    <edge id=":node_00x10_4" function="internal">
        <lane id=":node_00x10_4_0" index="0" disallow="tram rail_urban rail rail_electric ship" speed="13.89" length="5.02" shape="8994.59,10088.03 8994.76,10089.39 8995.34,10090.37 8996.30,10090.96 8997.67,10091.15"/>
    </edge>
    <edge id=":node_00x10_5" function="internal">
        <lane id=":node_00x10_5_0" index="0" disallow="tram rail_urban rail rail_electric ship" speed="13.89" length="9.54" shape="8994.59,10088.03 8994.59,10097.57"/>
    </edge>
    <edge id=":node_00x11_0" function="internal">
        <lane id=":node_00x11_0_0" index="0" disallow="tram rail_urban rail rail_electric ship" speed="13.89" length="9.64" shape="8992.90,10207.75 8992.64,10198.11"/>
    </edge>
    <edge id=":node_00x11_1" function="internal">
        <lane id=":node_00x11_1_0" index="0" disallow="tram rail_urban rail rail_electric ship" speed="13.89" length="5.38" shape="8992.90,10207.75 8993.21,10204.78 8994.41,10202.70"/>
    </edge>
    <edge id=":node_00x11_6" function="internal">
        <lane id=":node_00x11_6_0" index="0" speed="13.89" length="5.38" shape="8994.41,10202.70 8996.49,10201.52 8999.46,10201.23"/>
    </edge>
    <edge id=":node_00x11_2" function="internal">
        <lane id=":node_00x11_2_0" index="0" disallow="tram rail_urban rail rail_electric ship" speed="13.89" length="5.10" shape="8999.31,10204.53 8997.90,10204.67 8996.91,10205.23 8996.34,10206.21 8996.20,10207.62"/>
    </edge>
    <edge id=":node_00x11_3" function="internal">
        <lane id=":node_00x11_3_0" index="0" disallow="tram rail_urban rail rail_electric ship" speed="13.89" length="10.42" shape="8999.31,10204.53 8996.42,10204.01 8994.35,10202.77 8993.09,10200.80 8992.64,10198.11"/>
    </edge>
    <edge id=":node_00x11_4" function="internal">
        <lane id=":node_00x11_4_0" index="0" disallow="tram rail_urban rail rail_electric ship" speed="13.89" length="5.33" shape="8995.94,10198.06 8996.18,10199.39 8996.84,10200.36 8997.94,10200.97 8999.46,10201.23"/>
    </edge>
    <edge id=":node_00x11_5" function="internal">
        <lane id=":node_00x11_5_0" index="0" disallow="tram rail_urban rail rail_electric ship" speed="13.89" length="9.56" shape="8995.94,10198.06 8996.20,10207.62"/>
    </edge>
    <edge id=":node_00x12_0" function="internal">
        <lane id=":node_00x12_0_0" index="0" disallow="tram rail_urban rail rail_electric ship" speed="13.89" length="9.66" shape="8997.25,10316.99 8996.76,10307.34"/>
    </edge>
    <edge id=":node_00x12_1" function="internal">
        <lane id=":node_00x12_1_0" index="0" disallow="tram rail_urban rail rail_electric ship" speed="13.89" length="5.54" shape="8997.25,10316.99 8997.51,10313.90 8998.71,10311.78"/>
    </edge>
    <edge id=":node_00x12_6" function="internal">
        <lane id=":node_00x12_6_0" index="0" speed="13.89" length="5.54" shape="8998.71,10311.78 9000.86,10310.62 9003.95,10310.44"/>
    </edge>
    <edge id=":node_00x12_2" function="internal">
        <lane id=":node_00x12_2_0" index="0" disallow="tram rail_urban rail rail_electric ship" speed="13.89" length="5.18" shape="9003.68,10313.73 9002.23,10313.81 9001.23,10314.35 9000.66,10315.34 9000.54,10316.79"/>
    </edge>
    <edge id=":node_00x12_3" function="internal">
        <lane id=":node_00x12_3_0" index="0" disallow="tram rail_urban rail rail_electric ship" speed="13.89" length="10.46" shape="9003.68,10313.73 9000.74,10313.12 8998.61,10311.85 8997.28,10309.92 8996.76,10307.34"/>
    </edge>
    <edge id=":node_00x12_4" function="internal">
        <lane id=":node_00x12_4_0" index="0" disallow="tram rail_urban rail rail_electric ship" speed="13.89" length="5.60" shape="9000.06,10307.21 9000.35,10308.50 9001.09,10309.47 9002.29,10310.12 9003.95,10310.44"/>
    </edge>
    <edge id=":node_00x12_5" function="internal">
        <lane id=":node_00x12_5_0" index="0" disallow="tram rail_urban rail rail_electric ship" speed="13.89" length="9.59" shape="9000.06,10307.21 9000.54,10316.79"/>
    </edge>
    <edge id=":node_00x13_0" function="internal">
        <lane id=":node_00x13_0_0" index="0" disallow="tram rail_urban rail rail_electric ship" speed="13.89" length="9.67" shape="9003.74,10424.65 9003.09,10415.00"/>
    </edge>
    <edge id=":node_00x13_1" function="internal">
        <lane id=":node_00x13_1_0" index="0" disallow="tram rail_urban rail rail_electric ship" speed="13.89" length="5.49" shape="9003.74,10424.65 9003.96,10421.48 9005.10,10419.45"/>
    </edge>
    <edge id=":node_00x13_6" function="internal">
        <lane id=":node_00x13_6_0" index="0" speed="13.89" length="5.79" shape="9005.10,10419.45 9005.17,10419.33 9007.36,10418.19 9010.53,10418.07"/>
    </edge>
    <edge id=":node_00x13_2" function="internal">
        <lane id=":node_00x13_2_0" index="0" disallow="tram rail_urban rail rail_electric ship" speed="13.89" length="5.23" shape="9010.18,10421.35 9008.71,10421.41 9007.69,10421.94 9007.14,10422.93 9007.03,10424.40"/>
    </edge>
    <edge id=":node_00x13_3" function="internal">
        <lane id=":node_00x13_3_0" index="0" disallow="tram rail_urban rail rail_electric ship" speed="13.89" length="10.49" shape="9010.18,10421.35 9007.20,10420.69 9005.03,10419.41 9003.66,10417.51 9003.09,10415.00"/>
    </edge>
    <edge id=":node_00x13_4" function="internal">
        <lane id=":node_00x13_4_0" index="0" disallow="tram rail_urban rail rail_electric ship" speed="13.89" length="5.79" shape="9006.38,10414.80 9006.71,10416.07 9007.50,10417.04 9008.78,10417.71 9010.53,10418.07"/>
    </edge>
    <edge id=":node_00x13_5" function="internal">
        <lane id=":node_00x13_5_0" index="0" disallow="tram rail_urban rail rail_electric ship" speed="13.89" length="9.62" shape="9006.38,10414.80 9007.03,10424.40"/>
    </edge>
    <edge id=":node_00x14_0" function="internal">
        <lane id=":node_00x14_0_0" index="0" disallow="tram rail_urban rail rail_electric ship" speed="13.89" length="9.66" shape="9011.62,10530.37 9010.86,10520.74"/>
    </edge>
    <edge id=":node_00x14_1" function="internal">
        <lane id=":node_00x14_1_0" index="0" disallow="tram rail_urban rail rail_electric ship" speed="13.89" length="5.48" shape="9011.62,10530.37 9011.81,10527.17 9012.92,10525.18"/>
    </edge>
    <edge id=":node_00x14_6" function="internal">
        <lane id=":node_00x14_6_0" index="0" speed="13.89" length="5.89" shape="9012.92,10525.18 9013.02,10525.00 9015.22,10523.87 9018.43,10523.78"/>
    </edge>
    <edge id=":node_00x14_2" function="internal">
        <lane id=":node_00x14_2_0" index="0" disallow="tram rail_urban rail rail_electric ship" speed="13.89" length="5.25" shape="9018.05,10527.06 9016.57,10527.10 9015.55,10527.62 9015.00,10528.62 9014.91,10530.10"/>
    </edge>
    <edge id=":node_00x14_3" function="internal">
        <lane id=":node_00x14_3_0" index="0" disallow="tram rail_urban rail rail_electric ship" speed="13.89" length="10.50" shape="9018.05,10527.06 9015.06,10526.37 9012.86,10525.09 9011.47,10523.21 9010.86,10520.74"/>
    </edge>
    <edge id=":node_00x14_4" function="internal">
        <lane id=":node_00x14_4_0" index="0" disallow="tram rail_urban rail rail_electric ship" speed="13.89" length="5.89" shape="9014.15,10520.49 9014.50,10521.76 9015.33,10522.72 9016.64,10523.40 9018.43,10523.78"/>
    </edge>
    <edge id=":node_00x14_5" function="internal">
        <lane id=":node_00x14_5_0" index="0" disallow="tram rail_urban rail rail_electric ship" speed="13.89" length="9.63" shape="9014.15,10520.49 9014.91,10530.10"/>
    </edge>
    <edge id=":node_00x15_0" function="internal">
        <lane id=":node_00x15_0_0" index="0" disallow="tram rail_urban rail rail_electric ship" speed="13.89" length="9.63" shape="9020.11,10634.13 9019.31,10624.53"/>
    </edge>
    <edge id=":node_00x15_1" function="internal">
        <lane id=":node_00x15_1_0" index="0" disallow="tram rail_urban rail rail_electric ship" speed="13.89" length="5.45" shape="9020.11,10634.13 9020.30,10630.92 9021.39,10628.96"/>
    </edge>
    <edge id=":node_00x15_6" function="internal">
        <lane id=":node_00x15_6_0" index="0" speed="13.89" length="5.91" shape="9021.39,10628.96 9021.50,10628.76 9023.70,10627.62 9026.90,10627.52"/>
    </edge>
    <edge id=":node_00x15_2" function="internal">
        <lane id=":node_00x15_2_0" index="0" disallow="tram rail_urban rail rail_electric ship" speed="13.89" length="5.25" shape="9026.53,10630.80 9025.05,10630.85 9024.04,10631.37 9023.48,10632.37 9023.39,10633.85"/>
    </edge>
    <edge id=":node_00x15_3" function="internal">
        <lane id=":node_00x15_3_0" index="0" disallow="tram rail_urban rail rail_electric ship" speed="13.89" length="10.48" shape="9026.53,10630.80 9023.54,10630.12 9021.34,10628.85 9019.93,10626.99 9019.31,10624.53"/>
    </edge>
    <edge id=":node_00x15_4" function="internal">
        <lane id=":node_00x15_4_0" index="0" disallow="tram rail_urban rail rail_electric ship" speed="13.89" length="5.89" shape="9022.60,10624.26 9022.96,10625.51 9023.79,10626.48 9025.11,10627.15 9026.90,10627.52"/>
    </edge>
    <edge id=":node_00x15_5" function="internal">
        <lane id=":node_00x15_5_0" index="0" disallow="tram rail_urban rail rail_electric ship" speed="13.89" length="9.63" shape="9022.60,10624.26 9023.39,10633.85"/>
    </edge>
    <edge id=":node_00x16_0" function="internal">
        <lane id=":node_00x16_0_0" index="0" disallow="tram rail_urban rail rail_electric ship" speed="13.89" length="9.60" shape="9028.58,10736.13 9027.80,10726.56"/>
    </edge>
    <edge id=":node_00x16_1" function="internal">
        <lane id=":node_00x16_1_0" index="0" disallow="tram rail_urban rail rail_electric ship" speed="13.89" length="5.43" shape="9028.58,10736.13 9028.78,10732.95 9029.87,10730.99"/>
    </edge>
    <edge id=":node_00x16_6" function="internal">
        <lane id=":node_00x16_6_0" index="0" speed="13.89" length="5.88" shape="9029.87,10730.99 9029.98,10730.79 9032.17,10729.65 9035.35,10729.52"/>
    </edge>
    <edge id=":node_00x16_2" function="internal">
        <lane id=":node_00x16_2_0" index="0" disallow="tram rail_urban rail rail_electric ship" speed="13.89" length="5.23" shape="9035.00,10732.81 9033.53,10732.86 9032.52,10733.39 9031.96,10734.39 9031.87,10735.86"/>
    </edge>
    <edge id=":node_00x16_3" function="internal">
        <lane id=":node_00x16_3_0" index="0" disallow="tram rail_urban rail rail_electric ship" speed="13.89" length="10.46" shape="9035.00,10732.81 9032.03,10732.15 9029.83,10730.89 9028.43,10729.03 9027.80,10726.56"/>
    </edge>
    <edge id=":node_00x16_4" function="internal">
        <lane id=":node_00x16_4_0" index="0" disallow="tram rail_urban rail rail_electric ship" speed="13.89" length="5.84" shape="9031.09,10726.29 9031.45,10727.55 9032.27,10728.50 9033.57,10729.16 9035.35,10729.52"/>
    </edge>
    <edge id=":node_00x16_5" function="internal">
        <lane id=":node_00x16_5_0" index="0" disallow="tram rail_urban rail rail_electric ship" speed="13.89" length="9.61" shape="9031.09,10726.29 9031.87,10735.86"/>
    </edge>
    <edge id=":node_00x17_0" function="internal">