<?xml version='1.0' encoding='UTF-8'?>
<nodes xmlns:xsi="http://www.w3.org/2001/XMLSchema-instance" version="0.27" xsi:noNamespaceSchemaLocation="http://sumo.dlr.de/xsd/edges_file.xsd"><node avg_slowdown_ratio="0.791456683463" id="node_10x08" type="right_before_left" weight_num="3.0" weight_sum="2.37437005039" x="1000.00" y="800.00" />
    <node avg_slowdown_ratio="0.746820254377" id="node_09x08" type="right_before_left" weight_num="3.0" weight_sum="2.24046076313" x="900.00" y="800.00" />
    <node avg_slowdown_ratio="0.738660907127" id="node_10x06" type="right_before_left" weight_num="4.0" weight_sum="2.95464362851" x="1000.00" y="600.00" />
    <node avg_slowdown_ratio="0.737041036715" id="node_10x05" type="right_before_left" weight_num="4.0" weight_sum="2.94816414686" x="1000.00" y="500.00" />
    <node avg_slowdown_ratio="0.727321814255" id="node_10x07" type="right_before_left" weight_num="4.0" weight_sum="2.90928725702" x="1000.00" y="700.00" />
    <node avg_slowdown_ratio="0.725941924643" id="node_06x09" type="right_before_left" weight_num="3.0" weight_sum="2.17782577393" x="600.00" y="900.00" />
    <node avg_slowdown_ratio="0.71586273098" id="node_06x10" type="right_before_left" weight_num="3.0" weight_sum="2.14758819294" x="600.00" y="1000.00" />
    <node avg_slowdown_ratio="0.71256299496" id="node_07x10" type="right_before_left" weight_num="4.0" weight_sum="2.85025197984" x="700.00" y="1000.00" />
    <node avg_slowdown_ratio="0.693124550037" id="node_12x05" type="right_before_left" weight_num="4.0" weight_sum="2.77249820015" x="1200.00" y="500.00" />
    <node avg_slowdown_ratio="0.69210463163" id="node_05x10" type="right_before_left" weight_num="3.0" weight_sum="2.07631389489" x="500.00" y="1000.00" />
    <node avg_slowdown_ratio="0.669726421885" id="node_04x10" type="right_before_left" weight_num="4.0" weight_sum="2.67890568754" x="400.00" y="1000.00" />
    <node avg_slowdown_ratio="0.640988720903" id="node_08x10" type="right_before_left" weight_num="3.0" weight_sum="1.92296616271" x="800.00" y="1000.00" />
    <node avg_slowdown_ratio="0.635709143268" id="node_06x08" type="right_before_left" weight_num="4.0" weight_sum="2.54283657307" x="600.00" y="800.00" />
    <node avg_slowdown_ratio="0.623830093592" id="node_11x05" type="right_before_left" weight_num="4.0" weight_sum="2.49532037437" x="1100.00" y="500.00" />
    <node avg_slowdown_ratio="0.605231581473" id="node_05x09" type="right_before_left" weight_num="3.0" weight_sum="1.81569474442" x="500.00" y="900.00" />
    <node avg_slowdown_ratio="0.60187185025" id="node_09x09" type="right_before_left" weight_num="2.0" weight_sum="1.2037437005" x="900.00" y="900.00" />
    <node avg_slowdown_ratio="0.574154067675" id="node_08x09" type="right_before_left" weight_num="2.0" weight_sum="1.14830813535" x="800.00" y="900.00" />
    <node avg_slowdown_ratio="0.57211423086" id="node_14x05" type="right_before_left" weight_num="3.0" weight_sum="1.71634269258" x="1400.00" y="500.00" />
    <node avg_slowdown_ratio="0.541396688265" id="node_03x10" type="right_before_left" weight_num="4.0" weight_sum="2.16558675306" x="300.00" y="1000.00" />
    <node avg_slowdown_ratio="0.53419726422" id="node_13x05" type="right_before_left" weight_num="3.0" weight_sum="1.60259179266" x="1300.00" y="500.00" />
    <node avg_slowdown_ratio="0.49820014399" id="node_06x07" type="right_before_left" weight_num="4.0" weight_sum="1.99280057596" x="600.00" y="700.00" />
    <node avg_slowdown_ratio="0.482361411085" id="node_06x06" type="right_before_left" weight_num="4.0" weight_sum="1.92944564434" x="600.00" y="600.00" />
    <node avg_slowdown_ratio="0.474442044638" id="node_15x05" type="right_before_left" weight_num="4.0" weight_sum="1.89776817855" x="1500.00" y="500.00" />
    <node avg_slowdown_ratio="0.45164386849" id="node_09x14" type="right_before_left" weight_num="3.0" weight_sum="1.35493160547" x="900.00" y="1400.00" />
    <node avg_slowdown_ratio="0.416846652267" id="node_06x11" type="right_before_left" weight_num="3.0" weight_sum="1.2505399568" x="600.00" y="1100.00" />
    <node avg_slowdown_ratio="0.402687784977" id="node_07x04" type="right_before_left" weight_num="3.0" weight_sum="1.20806335493" x="700.00" y="400.00" />
    <node avg_slowdown_ratio="0.38120950324" id="node_05x08" type="right_before_left" weight_num="4.0" weight_sum="1.52483801296" x="500.00" y="800.00" />
    <node avg_slowdown_ratio="0.368430525557" id="node_07x03" type="right_before_left" weight_num="4.0" weight_sum="1.47372210223" x="700.00" y="300.00" />
    <node avg_slowdown_ratio="0.36093112551" id="node_09x15" type="right_before_left" weight_num="3.0" weight_sum="1.08279337653" x="900.00" y="1500.00" />
    <node avg_slowdown_ratio="0.360451163907" id="node_14x17" type="right_before_left" weight_num="3.0" weight_sum="1.08135349172" x="1400.00" y="1700.00" />
    <node avg_slowdown_ratio="0.35169186465" id="node_11x06" type="right_before_left" weight_num="4.0" weight_sum="1.4067674586" x="1100.00" y="600.00" />
    <node avg_slowdown_ratio="0.3438924886" id="node_07x05" type="right_before_left" weight_num="3.0" weight_sum="1.0316774658" x="700.00" y="500.00" />
    <node avg_slowdown_ratio="0.339992800577" id="node_07x11" type="right_before_left" weight_num="4.0" weight_sum="1.35997120231" x="700.00" y="1100.00" />
    <node avg_slowdown_ratio="0.338192944565" id="node_14x14" type="right_before_left" weight_num="4.0" weight_sum="1.35277177826" x="1400.00" y="1400.00" />
    <node avg_slowdown_ratio="0.33597312215" id="node_08x13" type="right_before_left" weight_num="3.0" weight_sum="1.00791936645" x="800.00" y="1300.00" />
    <node avg_slowdown_ratio="0.334053275737" id="node_04x11" type="right_before_left" weight_num="3.0" weight_sum="1.00215982721" x="400.00" y="1100.00" />
    <node avg_slowdown_ratio="0.334053275737" id="node_07x12" type="right_before_left" weight_num="3.0" weight_sum="1.00215982721" x="700.00" y="1200.00" />
    <node avg_slowdown_ratio="0.330213582913" id="node_17x20" type="right_before_left" weight_num="3.0" weight_sum="0.99064074874" x="1700.00" y="2000.00" />
    <node avg_slowdown_ratio="0.328533717303" id="node_12x13" type="right_before_left" weight_num="3.0" weight_sum="0.985601151908" x="1200.00" y="1300.00" />
    <node avg_slowdown_ratio="0.323014158867" id="node_08x15" type="right_before_left" weight_num="3.0" weight_sum="0.969042476601" x="800.00" y="1500.00" />
    <node avg_slowdown_ratio="0.320134389249" id="node_15x03" type="right_before_left" weight_num="3.0" weight_sum="0.960403167747" x="1500.00" y="300.00" />
    <node avg_slowdown_ratio="0.317674586032" id="node_15x04" type="right_before_left" weight_num="4.0" weight_sum="1.27069834413" x="1500.00" y="400.00" />
    <node avg_slowdown_ratio="0.314854811615" id="node_09x10" type="right_before_left" weight_num="3.0" weight_sum="0.944564434845" x="900.00" y="1000.00" />
    <node avg_slowdown_ratio="0.314374850012" id="node_02x12" type="right_before_left" weight_num="3.0" weight_sum="0.943124550036" x="200.00" y="1200.00" />
    <node avg_slowdown_ratio="0.312694984401" id="node_06x04" type="right_before_left" weight_num="3.0" weight_sum="0.938084953203" x="600.00" y="400.00" />
    <node avg_slowdown_ratio="0.311975041997" id="node_11x15" type="right_before_left" weight_num="3.0" weight_sum="0.93592512599" x="1100.00" y="1500.00" />
    <node avg_slowdown_ratio="0.305615550755" id="node_14x09" type="right_before_left" weight_num="4.0" weight_sum="1.22246220302" x="1400.00" y="900.00" />
    <node avg_slowdown_ratio="0.305255579554" id="node_05x15" type="right_before_left" weight_num="3.0" weight_sum="0.915766738661" x="500.00" y="1500.00" />
    <node avg_slowdown_ratio="0.305255579552" id="node_11x12" type="right_before_left" weight_num="4.0" weight_sum="1.22102231821" x="1100.00" y="1200.00" />
    <node avg_slowdown_ratio="0.304295656348" id="node_00x03" type="right_before_left" weight_num="3.0" weight_sum="0.912886969043" x="0.00" y="300.00" />
    <node avg_slowdown_ratio="0.304175665948" id="node_14x11" type="right_before_left" weight_num="4.0" weight_sum="1.21670266379" x="1400.00" y="1100.00" />
    <node avg_slowdown_ratio="0.30309575234" id="node_09x04" type="right_before_left" weight_num="3.0" weight_sum="0.909287257019" x="900.00" y="400.00" />
    <node avg_slowdown_ratio="0.302375809935" id="node_09x06" type="right_before_left" weight_num="3.0" weight_sum="0.907127429806" x="900.00" y="600.00" />
    <node avg_slowdown_ratio="0.302195824335" id="node_16x17" type="right_before_left" weight_num="4.0" weight_sum="1.20878329734" x="1600.00" y="1700.00" />
    <node avg_slowdown_ratio="0.301415886729" id="node_13x08" type="right_before_left" weight_num="3.0" weight_sum="0.904247660187" x="1300.00" y="800.00" />
    <node avg_slowdown_ratio="0.30003599712" id="node_09x01" type="right_before_left" weight_num="4.0" weight_sum="1.20014398848" x="900.00" y="100.00" />
    <node avg_slowdown_ratio="0.29997600192" id="node_06x05" type="right_before_left" weight_num="3.0" weight_sum="0.89992800576" x="600.00" y="500.00" />
    <node avg_slowdown_ratio="0.298536117111" id="node_04x08" type="right_before_left" weight_num="3.0" weight_sum="0.895608351332" x="400.00" y="800.00" />
    <node avg_slowdown_ratio="0.297576193905" id="node_05x14" type="right_before_left" weight_num="3.0" weight_sum="0.892728581714" x="500.00" y="1400.00" />
    <node avg_slowdown_ratio="0.2969762419" id="node_03x14" type="right_before_left" weight_num="4.0" weight_sum="1.1879049676" x="300.00" y="1400.00" />
    <node avg_slowdown_ratio="0.296136309095" id="node_11x02" type="right_before_left" weight_num="3.0" weight_sum="0.888408927285" x="1100.00" y="200.00" />
    <node avg_slowdown_ratio="0.29391648668" id="node_04x19" type="right_before_left" weight_num="4.0" weight_sum="1.17566594672" x="400.00" y="1900.00" />
    <node avg_slowdown_ratio="0.293016558675" id="node_13x11" type="right_before_left" weight_num="3.0" weight_sum="0.879049676025" x="1300.00" y="1100.00" />
    <node avg_slowdown_ratio="0.29229661627" id="node_18x15" type="right_before_left" weight_num="4.0" weight_sum="1.16918646508" x="1800.00" y="1500.00" />
    <node avg_slowdown_ratio="0.290136789056" id="node_11x03" type="right_before_left" weight_num="2.0" weight_sum="0.580273578113" x="1100.00" y="300.00" />
    <node avg_slowdown_ratio="0.289956803455" id="node_10x04" type="right_before_left" weight_num="4.0" weight_sum="1.15982721382" x="1000.00" y="400.00" />
    <node avg_slowdown_ratio="0.288936885049" id="node_18x17" type="right_before_left" weight_num="3.0" weight_sum="0.866810655147" x="1800.00" y="1700.00" />
    <node avg_slowdown_ratio="0.287976961843" id="node_07x08" type="right_before_left" weight_num="2.0" weight_sum="0.575953923686" x="700.00" y="800.00" />
    <node avg_slowdown_ratio="0.287976961842" id="node_10x13" type="right_before_left" weight_num="4.0" weight_sum="1.15190784737" x="1000.00" y="1300.00" />
    <node avg_slowdown_ratio="0.286777057836" id="node_20x10" type="right_before_left" weight_num="3.0" weight_sum="0.860331173507" x="2000.00" y="1000.00" />
    <node avg_slowdown_ratio="0.286777057835" id="node_15x17" type="right_before_left" weight_num="3.0" weight_sum="0.860331173506" x="1500.00" y="1700.00" />
    <node avg_slowdown_ratio="0.286297096232" id="node_12x17" type="right_before_left" weight_num="3.0" weight_sum="0.858891288697" x="1200.00" y="1700.00" />
    <node avg_slowdown_ratio="0.285457163427" id="node_05x17" type="right_before_left" weight_num="4.0" weight_sum="1.14182865371" x="500.00" y="1700.00" />
    <node avg_slowdown_ratio="0.285337173026" id="node_17x04" type="right_before_left" weight_num="3.0" weight_sum="0.856011519079" x="1700.00" y="400.00" />
    <node avg_slowdown_ratio="0.2813174946" id="node_15x06" type="right_before_left" weight_num="4.0" weight_sum="1.1252699784" x="1500.00" y="600.00" />
    <node avg_slowdown_ratio="0.281017518599" id="node_09x02" type="right_before_left" weight_num="3.0" weight_sum="0.843052555796" x="900.00" y="200.00" />
    <node avg_slowdown_ratio="0.281017518599" id="node_13x17" type="right_before_left" weight_num="3.0" weight_sum="0.843052555796" x="1300.00" y="1700.00" />
    <node avg_slowdown_ratio="0.280777537797" id="node_04x12" type="right_before_left" weight_num="2.0" weight_sum="0.561555075594" x="400.00" y="1200.00" />
    <node avg_slowdown_ratio="0.280777537797" id="node_05x19" type="right_before_left" weight_num="3.0" weight_sum="0.842332613391" x="500.00" y="1900.00" />
    <node avg_slowdown_ratio="0.280417566595" id="node_20x19" type="right_before_left" weight_num="2.0" weight_sum="0.560835133189" x="2000.00" y="1900.00" />
<node avg_slowdown_ratio="0.278857691385" id="node_13x09" type="right_before_left" weight_num="3.0" weight_sum="0.836573074154" x="1300.00" y="900.00" />
    <node avg_slowdown_ratio="0.276937844972" id="node_10x14" type="right_before_left" weight_num="3.0" weight_sum="0.830813534917" x="1000.00" y="1400.00" />
    <node avg_slowdown_ratio="0.276817854571" id="node_19x04" type="right_before_left" weight_num="2.0" weight_sum="0.553635709143" x="1900.00" y="400.00" />
    <node avg_slowdown_ratio="0.276697864171" id="node_03x03" type="right_before_left" weight_num="3.0" weight_sum="0.830093592512" x="300.00" y="300.00" />
    <node avg_slowdown_ratio="0.27645788337" id="node_02x08" type="right_before_left" weight_num="4.0" weight_sum="1.10583153348" x="200.00" y="800.00" />
    <node avg_slowdown_ratio="0.275977921766" id="node_12x18" type="right_before_left" weight_num="3.0" weight_sum="0.827933765299" x="1200.00" y="1800.00" />
    <node avg_slowdown_ratio="0.275737940965" id="node_00x00" type="right_before_left" weight_num="2.0" weight_sum="0.55147588193" x="0.00" y="0.00" />
    <node avg_slowdown_ratio="0.275737940965" id="node_02x14" type="right_before_left" weight_num="2.0" weight_sum="0.55147588193" x="200.00" y="1400.00" />
    <node avg_slowdown_ratio="0.275737940965" id="node_19x05" type="right_before_left" weight_num="3.0" weight_sum="0.827213822895" x="1900.00" y="500.00" />
    <node avg_slowdown_ratio="0.275497960163" id="node_06x13" type="right_before_left" weight_num="3.0" weight_sum="0.826493880489" x="600.00" y="1300.00" />
    <node avg_slowdown_ratio="0.275017998561" id="node_08x18" type="right_before_left" weight_num="2.0" weight_sum="0.550035997121" x="800.00" y="1800.00" />
    <node avg_slowdown_ratio="0.27501799856" id="node_19x14" type="right_before_left" weight_num="2.0" weight_sum="0.55003599712" x="1900.00" y="1400.00" />
    <node avg_slowdown_ratio="0.274478041758" id="node_14x08" type="right_before_left" weight_num="4.0" weight_sum="1.09791216703" x="1400.00" y="800.00" />
    <node avg_slowdown_ratio="0.274298056156" id="node_11x13" type="right_before_left" weight_num="3.0" weight_sum="0.822894168467" x="1100.00" y="1300.00" />
    <node avg_slowdown_ratio="0.274058075354" id="node_00x07" type="right_before_left" weight_num="3.0" weight_sum="0.822174226062" x="0.00" y="700.00" />
    <node avg_slowdown_ratio="0.274058075354" id="node_08x12" type="right_before_left" weight_num="3.0" weight_sum="0.822174226062" x="800.00" y="1200.00" />
    <node avg_slowdown_ratio="0.273818094553" id="node_07x17" type="right_before_left" weight_num="3.0" weight_sum="0.821454283658" x="700.00" y="1700.00" />
    <node avg_slowdown_ratio="0.273578113751" id="node_04x20" type="right_before_left" weight_num="2.0" weight_sum="0.547156227502" x="400.00" y="2000.00" />
    <node avg_slowdown_ratio="0.27189824814" id="node_11x08" type="right_before_left" weight_num="3.0" weight_sum="0.815694744421" x="1100.00" y="800.00" />
    <node avg_slowdown_ratio="0.271178305735" id="node_06x17" type="right_before_left" weight_num="3.0" weight_sum="0.813534917206" x="600.00" y="1700.00" />
    <node avg_slowdown_ratio="0.270938324934" id="node_06x12" type="right_before_left" weight_num="3.0" weight_sum="0.812814974801" x="600.00" y="1200.00" />
    <node avg_slowdown_ratio="0.270698344132" id="node_09x07" type="right_before_left" weight_num="2.0" weight_sum="0.541396688265" x="900.00" y="700.00" />
    <node avg_slowdown_ratio="0.27033837293" id="node_18x06" type="right_before_left" weight_num="4.0" weight_sum="1.08135349172" x="1800.00" y="600.00" />
    <node avg_slowdown_ratio="0.270218382529" id="node_07x06" type="right_before_left" weight_num="3.0" weight_sum="0.810655147588" x="700.00" y="600.00" />
    <node avg_slowdown_ratio="0.270218382529" id="node_11x18" type="right_before_left" weight_num="3.0" weight_sum="0.810655147588" x="1100.00" y="1800.00" />
    <node avg_slowdown_ratio="0.269978401728" id="node_11x09" type="right_before_left" weight_num="3.0" weight_sum="0.809935205183" x="1100.00" y="900.00" />
    <node avg_slowdown_ratio="0.268898488121" id="node_12x06" type="right_before_left" weight_num="2.0" weight_sum="0.537796976242" x="1200.00" y="600.00" />
    <node avg_slowdown_ratio="0.26877849772" id="node_00x02" type="right_before_left" weight_num="3.0" weight_sum="0.80633549316" x="0.00" y="200.00" />
    <node avg_slowdown_ratio="0.26709863211" id="node_08x14" type="right_before_left" weight_num="3.0" weight_sum="0.801295896329" x="800.00" y="1400.00" />
    <node avg_slowdown_ratio="0.26709863211" id="node_18x12" type="right_before_left" weight_num="2.0" weight_sum="0.534197264219" x="1800.00" y="1200.00" />
    <node avg_slowdown_ratio="0.266738660907" id="node_07x09" type="right_before_left" weight_num="2.0" weight_sum="0.533477321814" x="700.00" y="900.00" />
    <node avg_slowdown_ratio="0.266738660907" id="node_09x05" type="right_before_left" weight_num="2.0" weight_sum="0.533477321814" x="900.00" y="500.00" />
    <node avg_slowdown_ratio="0.266738660907" id="node_15x10" type="right_before_left" weight_num="2.0" weight_sum="0.533477321815" x="1500.00" y="1000.00" />
    <node avg_slowdown_ratio="0.266018718502" id="node_11x04" type="right_before_left" weight_num="2.0" weight_sum="0.532037437005" x="1100.00" y="400.00" />
    <node avg_slowdown_ratio="0.2656587473" id="node_00x16" type="right_before_left" weight_num="3.0" weight_sum="0.796976241901" x="0.00" y="1600.00" />
    <node avg_slowdown_ratio="0.2656587473" id="node_05x07" type="right_before_left" weight_num="2.0" weight_sum="0.531317494601" x="500.00" y="700.00" />
    <node avg_slowdown_ratio="0.265418766499" id="node_14x10" type="right_before_left" weight_num="3.0" weight_sum="0.796256299496" x="1400.00" y="1000.00" />
    <node avg_slowdown_ratio="0.265298776098" id="node_04x18" type="right_before_left" weight_num="2.0" weight_sum="0.530597552196" x="400.00" y="1800.00" />
    <node avg_slowdown_ratio="0.265178785697" id="node_00x11" type="right_before_left" weight_num="3.0" weight_sum="0.795536357091" x="0.00" y="1100.00" />
    <node avg_slowdown_ratio="0.264578833693" id="node_04x04" type="right_before_left" weight_num="2.0" weight_sum="0.529157667387" x="400.00" y="400.00" />
    <node avg_slowdown_ratio="0.264218862491" id="node_01x14" type="right_before_left" weight_num="3.0" weight_sum="0.792656587473" x="100.00" y="1400.00" />
    <node avg_slowdown_ratio="0.263498920086" id="node_04x16" type="right_before_left" weight_num="3.0" weight_sum="0.790496760259" x="400.00" y="1600.00" />
    <node avg_slowdown_ratio="0.263498920086" id="node_13x20" type="right_before_left" weight_num="2.0" weight_sum="0.526997840173" x="1300.00" y="2000.00" />
    <node avg_slowdown_ratio="0.263498920086" id="node_20x04" type="right_before_left" weight_num="2.0" weight_sum="0.526997840173" x="2000.00" y="400.00" />
    <node avg_slowdown_ratio="0.262778977682" id="node_02x16" type="right_before_left" weight_num="2.0" weight_sum="0.525557955364" x="200.00" y="1600.00" />
    <node avg_slowdown_ratio="0.26253899688" id="node_02x19" type="right_before_left" weight_num="3.0" weight_sum="0.787616990641" x="200.00" y="1900.00" />
    <node avg_slowdown_ratio="0.262059035277" id="node_00x06" type="right_before_left" weight_num="3.0" weight_sum="0.786177105831" x="0.00" y="600.00" />
    <node avg_slowdown_ratio="0.261339092873" id="node_15x13" type="right_before_left" weight_num="2.0" weight_sum="0.522678185745" x="1500.00" y="1300.00" />
    <node avg_slowdown_ratio="0.261159107273" id="node_01x10" type="right_before_left" weight_num="4.0" weight_sum="1.04463642909" x="100.00" y="1000.00" />
    <node avg_slowdown_ratio="0.26085913127" id="node_06x03" type="right_before_left" weight_num="3.0" weight_sum="0.782577393809" x="600.00" y="300.00" />
    <node avg_slowdown_ratio="0.260619150468" id="node_09x00" type="right_before_left" weight_num="2.0" weight_sum="0.521238300936" x="900.00" y="0.00" />
    <node avg_slowdown_ratio="0.260259179266" id="node_04x09" type="right_before_left" weight_num="2.0" weight_sum="0.520518358531" x="400.00" y="900.00" />
    <node avg_slowdown_ratio="0.25941924646" id="node_03x15" type="right_before_left" weight_num="3.0" weight_sum="0.778257739381" x="300.00" y="1500.00" />
    <node avg_slowdown_ratio="0.259179265659" id="node_05x01" type="right_before_left" weight_num="2.0" weight_sum="0.518358531318" x="500.00" y="100.00" />
    <node avg_slowdown_ratio="0.259179265659" id="node_07x01" type="right_before_left" weight_num="3.0" weight_sum="0.777537796977" x="700.00" y="100.00" />
    <node avg_slowdown_ratio="0.258939284857" id="node_12x10" type="right_before_left" weight_num="3.0" weight_sum="0.776817854572" x="1200.00" y="1000.00" />
    <node avg_slowdown_ratio="0.258819294456" id="node_05x20" type="right_before_left" weight_num="2.0" weight_sum="0.517638588912" x="500.00" y="2000.00" />
    <node avg_slowdown_ratio="0.258459323254" id="node_08x17" type="right_before_left" weight_num="3.0" weight_sum="0.775377969763" x="800.00" y="1700.00" />
    <node avg_slowdown_ratio="0.258459323254" id="node_10x20" type="right_before_left" weight_num="2.0" weight_sum="0.516918646509" x="1000.00" y="2000.00" />
    <node avg_slowdown_ratio="0.258459323254" id="node_20x08" type="right_before_left" weight_num="3.0" weight_sum="0.775377969762" x="2000.00" y="800.00" />
    <node avg_slowdown_ratio="0.258219342453" id="node_05x12" type="right_before_left" weight_num="3.0" weight_sum="0.774658027358" x="500.00" y="1200.00" />
    <node avg_slowdown_ratio="0.258219342453" id="node_05x16" type="right_before_left" weight_num="3.0" weight_sum="0.774658027359" x="500.00" y="1600.00" />
    <node avg_slowdown_ratio="0.258099352052" id="node_13x10" type="right_before_left" weight_num="2.0" weight_sum="0.516198704104" x="1300.00" y="1000.00" />
    <node avg_slowdown_ratio="0.257979361651" id="node_06x20" type="right_before_left" weight_num="3.0" weight_sum="0.773938084953" x="600.00" y="2000.00" />
    <node avg_slowdown_ratio="0.257739380849" id="node_00x01" type="right_before_left" weight_num="2.0" weight_sum="0.515478761699" x="0.00" y="100.00" />
    <node avg_slowdown_ratio="0.257559395247" id="node_05x18" type="right_before_left" weight_num="4.0" weight_sum="1.03023758099" x="500.00" y="1800.00" />
    <node avg_slowdown_ratio="0.257379409648" id="node_00x09" type="right_before_left" weight_num="2.0" weight_sum="0.514758819295" x="0.00" y="900.00" />
    <node avg_slowdown_ratio="0.257019438445" id="node_04x14" type="right_before_left" weight_num="2.0" weight_sum="0.51403887689" x="400.00" y="1400.00" />
    <node avg_slowdown_ratio="0.256779457644" id="node_11x19" type="right_before_left" weight_num="3.0" weight_sum="0.770338372931" x="1100.00" y="1900.00" />
    <node avg_slowdown_ratio="0.256779457643" id="node_03x02" type="right_before_left" weight_num="3.0" weight_sum="0.77033837293" x="300.00" y="200.00" />
    <node avg_slowdown_ratio="0.256659467242" id="node_11x14" type="right_before_left" weight_num="2.0" weight_sum="0.513318934485" x="1100.00" y="1400.00" />
    <node avg_slowdown_ratio="0.256659467242" id="node_14x07" type="right_before_left" weight_num="4.0" weight_sum="1.02663786897" x="1400.00" y="700.00" />
    <node avg_slowdown_ratio="0.256539476842" id="node_07x15" type="right_before_left" weight_num="3.0" weight_sum="0.769618430526" x="700.00" y="1500.00" />
    <node avg_slowdown_ratio="0.25629949604" id="node_12x02" type="right_before_left" weight_num="3.0" weight_sum="0.768898488121" x="1200.00" y="200.00" />
    <node avg_slowdown_ratio="0.25629949604" id="node_13x18" type="right_before_left" weight_num="3.0" weight_sum="0.76889848812" x="1300.00" y="1800.00" />
    <node avg_slowdown_ratio="0.25629949604" id="node_19x19" type="right_before_left" weight_num="1.0" weight_sum="0.25629949604" x="1900.00" y="1900.00" />
    <node avg_slowdown_ratio="0.256059515239" id="node_00x17" type="right_before_left" weight_num="3.0" weight_sum="0.768178545716" x="0.00" y="1700.00" />
    <node avg_slowdown_ratio="0.256059515239" id="node_15x11" type="right_before_left" weight_num="3.0" weight_sum="0.768178545717" x="1500.00" y="1100.00" />
    <node avg_slowdown_ratio="0.255939524838" id="node_04x02" type="right_before_left" weight_num="2.0" weight_sum="0.511879049676" x="400.00" y="200.00" />
    <node avg_slowdown_ratio="0.255819534437" id="node_01x09" type="right_before_left" weight_num="3.0" weight_sum="0.767458603311" x="100.00" y="900.00" />
    <node avg_slowdown_ratio="0.255819534437" id="node_09x18" type="right_before_left" weight_num="3.0" weight_sum="0.767458603311" x="900.00" y="1800.00" />
    <node avg_slowdown_ratio="0.255219582434" id="node_12x14" type="right_before_left" weight_num="2.0" weight_sum="0.510439164867" x="1200.00" y="1400.00" />
    <node avg_slowdown_ratio="0.255099592033" id="node_13x12" type="right_before_left" weight_num="3.0" weight_sum="0.765298776098" x="1300.00" y="1200.00" />
    <node avg_slowdown_ratio="0.254859611233" id="node_19x06" type="right_before_left" weight_num="4.0" weight_sum="1.01943844493" x="1900.00" y="600.00" />
    <node avg_slowdown_ratio="0.254859611231" id="node_12x03" type="right_before_left" weight_num="3.0" weight_sum="0.764578833693" x="1200.00" y="300.00" />
    <node avg_slowdown_ratio="0.254859611231" id="node_17x05" type="right_before_left" weight_num="3.0" weight_sum="0.764578833693" x="1700.00" y="500.00" />
    <node avg_slowdown_ratio="0.25461963043" id="node_09x16" type="right_before_left" weight_num="3.0" weight_sum="0.763858891289" x="900.00" y="1600.00" />
    <node avg_slowdown_ratio="0.25461963043" id="node_15x08" type="right_before_left" weight_num="3.0" weight_sum="0.763858891289" x="1500.00" y="800.00" />
    <node avg_slowdown_ratio="0.254379649628" id="node_02x01" type="right_before_left" weight_num="3.0" weight_sum="0.763138948884" x="200.00" y="100.00" />
    <node avg_slowdown_ratio="0.254139668827" id="node_03x19" type="right_before_left" weight_num="3.0" weight_sum="0.76241900648" x="300.00" y="1900.00" />
    <node avg_slowdown_ratio="0.254139668827" id="node_17x16" type="right_before_left" weight_num="3.0" weight_sum="0.76241900648" x="1700.00" y="1600.00" />
    <node avg_slowdown_ratio="0.254139668827" id="node_19x07" type="right_before_left" weight_num="2.0" weight_sum="0.508279337653" x="1900.00" y="700.00" />
    <node avg_slowdown_ratio="0.253779697624" id="node_00x05" type="right_before_left" weight_num="2.0" weight_sum="0.507559395249" x="0.00" y="500.00" />
    <node avg_slowdown_ratio="0.253659707224" id="node_01x03" type="right_before_left" weight_num="3.0" weight_sum="0.760979121671" x="100.00" y="300.00" />
    <node avg_slowdown_ratio="0.253419726422" id="node_15x15" type="right_before_left" weight_num="3.0" weight_sum="0.760259179265" x="1500.00" y="1500.00" />
    <node avg_slowdown_ratio="0.25317974562" id="node_10x19" type="right_before_left" weight_num="3.0" weight_sum="0.759539236861" x="1000.00" y="1900.00" />
    <node avg_slowdown_ratio="0.25317974562" id="node_18x16" type="right_before_left" weight_num="3.0" weight_sum="0.759539236861" x="1800.00" y="1600.00" />
    <node avg_slowdown_ratio="0.25305975522" id="node_14x12" type="right_before_left" weight_num="2.0" weight_sum="0.506119510439" x="1400.00" y="1200.00" />
    <node avg_slowdown_ratio="0.252939764819" id="node_08x03" type="right_before_left" weight_num="3.0" weight_sum="0.758819294457" x="800.00" y="300.00" />
    <node avg_slowdown_ratio="0.252699784017" id="node_17x10" type="right_before_left" weight_num="3.0" weight_sum="0.758099352051" x="1700.00" y="1000.00" />
    <node avg_slowdown_ratio="0.252339812815" id="node_07x00" type="right_before_left" weight_num="2.0" weight_sum="0.50467962563" x="700.00" y="0.00" />
    <node avg_slowdown_ratio="0.252339812815" id="node_10x12" type="right_before_left" weight_num="2.0" weight_sum="0.50467962563" x="1000.00" y="1200.00" />
    <node avg_slowdown_ratio="0.251979841613" id="node_16x11" type="right_before_left" weight_num="3.0" weight_sum="0.755939524838" x="1600.00" y="1100.00" />
    <node avg_slowdown_ratio="0.25161987041" id="node_07x02" type="right_before_left" weight_num="2.0" weight_sum="0.503239740821" x="700.00" y="200.00" />
    <node avg_slowdown_ratio="0.25161987041" id="node_09x20" type="right_before_left" weight_num="2.0" weight_sum="0.503239740821" x="900.00" y="2000.00" />
    <node avg_slowdown_ratio="0.250779937605" id="node_07x20" type="right_before_left" weight_num="3.0" weight_sum="0.752339812815" x="700.00" y="2000.00" />
    <node avg_slowdown_ratio="0.250539956803" id="node_11x07" type="right_before_left" weight_num="3.0" weight_sum="0.75161987041" x="1100.00" y="700.00" />
    <node avg_slowdown_ratio="0.250299976002" id="node_04x05" type="right_before_left" weight_num="3.0" weight_sum="0.750899928006" x="400.00" y="500.00" />
    <node avg_slowdown_ratio="0.250179985601" id="node_03x16" type="right_before_left" weight_num="2.0" weight_sum="0.500359971202" x="300.00" y="1600.00" />