<?xml version="1.0" encoding="UTF-8"?>

<!-- generated on 02/06/17 18:44:01 by SUMO netconvert Version 0.27.1
<?xml version="1.0" encoding="UTF-8"?>

<configuration xmlns:xsi="http://www.w3.org/2001/XMLSchema-instance" xsi:noNamespaceSchemaLocation="http://sumo.dlr.de/xsd/netconvertConfiguration.xsd">

    <input>
        <node-files value="C:\Users\zs633\capstone\10_spherical\test_random4\7_displaced\spherical.nod.xml"/>
        <edge-files value="C:\Users\zs633\capstone\10_spherical\test_random4\7_displaced\spherical.edg.xml"/>
        <connection-files value="C:\Users\zs633\capstone\10_spherical\test_random4\4_plain\test.con.xml"/>
        <tllogic-files value="C:\Users\zs633\capstone\10_spherical\test_random4\4_plain\test.tll.xml"/>
    </input>

    <output>
        <output-file value="C:\Users\zs633\capstone\10_spherical\test_random4\9_output_net\spherical.net.xml"/>
    </output>

    <processing>
        <ignore-errors value="true"/>
        <ignore-errors.edge-type value="true"/>
    </processing>

    <report>
        <verbose value="true"/>
        <xml-validation value="never"/>
        <no-warnings value="true"/>
    </report>

</configuration>
-->

<net version="0.27" xmlns:xsi="http://www.w3.org/2001/XMLSchema-instance" xsi:noNamespaceSchemaLocation="http://sumo.dlr.de/xsd/net_file.xsd">

    <location netOffset="0.00,0.00" convBoundary="0.00,0.00,2000.00,2000.00" origBoundary="0.00,0.00,2000.00,2000.00" projParameter="!"/>

    <edge id=":node_00x00_0" function="internal">
        <lane id=":node_00x00_0_0" index="0" disallow="tram rail_urban rail rail_electric ship" speed="13.89" length="7.90" shape="-1.65,3.25 -1.34,1.11 -0.43,-0.43 1.11,-1.34 3.25,-1.65"/>
    </edge>
    <edge id=":node_00x00_1" function="internal">
        <lane id=":node_00x00_1_0" index="0" disallow="tram rail_urban rail rail_electric ship" speed="13.89" length="2.58" shape="3.25,1.65 2.55,1.75 2.05,2.05 1.75,2.55 1.65,3.25"/>
    </edge>
    <edge id=":node_00x01_0" function="internal">
        <lane id=":node_00x01_0_0" index="0" disallow="tram rail_urban rail rail_electric ship" speed="13.89" length="0.10" shape="-1.65,100.00 -1.65,100.00"/>
    </edge>
    <edge id=":node_00x01_1" function="internal">
        <lane id=":node_00x01_1_0" index="0" disallow="tram rail_urban rail rail_electric ship" speed="13.89" length="0.10" shape="1.65,100.00 1.65,100.00"/>
    </edge>
    <edge id=":node_00x02_0" function="internal">
        <lane id=":node_00x02_0_0" index="0" disallow="tram rail_urban rail rail_electric ship" speed="13.89" length="9.50" shape="-1.65,204.75 -1.65,195.25"/>
    </edge>
    <edge id=":node_00x02_1" function="internal">
        <lane id=":node_00x02_1_0" index="0" disallow="tram rail_urban rail rail_electric ship" speed="13.89" length="10.32" shape="-1.65,204.75 -1.25,201.95 -0.05,199.95 1.95,198.75 4.75,198.35"/>
    </edge>
    <edge id=":node_00x02_2" function="internal">
        <lane id=":node_00x02_2_0" index="0" disallow="tram rail_urban rail rail_electric ship" speed="13.89" length="5.00" shape="4.75,201.65 3.39,201.84 2.43,202.43 1.84,203.39 1.65,204.75"/>
    </edge>
    <edge id=":node_00x02_3" function="internal">
        <lane id=":node_00x02_3_0" index="0" disallow="tram rail_urban rail rail_electric ship" speed="13.89" length="10.32" shape="4.75,201.65 1.95,201.25 -0.05,200.05 -1.25,198.05 -1.65,195.25"/>
    </edge>
    <edge id=":node_00x02_4" function="internal">
        <lane id=":node_00x02_4_0" index="0" disallow="tram rail_urban rail rail_electric ship" speed="13.89" length="5.00" shape="1.65,195.25 1.84,196.61 2.43,197.58 3.39,198.16 4.75,198.35"/>
    </edge>
    <edge id=":node_00x02_5" function="internal">
        <lane id=":node_00x02_5_0" index="0" disallow="tram rail_urban rail rail_electric ship" speed="13.89" length="9.50" shape="1.65,195.25 1.65,204.75"/>
    </edge>
    <edge id=":node_00x03_0" function="internal">
        <lane id=":node_00x03_0_0" index="0" disallow="tram rail_urban rail rail_electric ship" speed="13.89" length="9.50" shape="-1.65,304.75 -1.65,295.25"/>
    </edge>
    <edge id=":node_00x03_1" function="internal">
        <lane id=":node_00x03_1_0" index="0" disallow="tram rail_urban rail rail_electric ship" speed="13.89" length="10.32" shape="-1.65,304.75 -1.25,301.95 -0.05,299.95 1.95,298.75 4.75,298.35"/>
    </edge>
    <edge id=":node_00x03_2" function="internal">
        <lane id=":node_00x03_2_0" index="0" disallow="tram rail_urban rail rail_electric ship" speed="13.89" length="5.00" shape="4.75,301.65 3.39,301.84 2.43,302.42 1.84,303.39 1.65,304.75"/>
    </edge>
    <edge id=":node_00x03_3" function="internal">
        <lane id=":node_00x03_3_0" index="0" disallow="tram rail_urban rail rail_electric ship" speed="13.89" length="10.32" shape="4.75,301.65 1.95,301.25 -0.05,300.05 -1.25,298.05 -1.65,295.25"/>
    </edge>
    <edge id=":node_00x03_4" function="internal">
        <lane id=":node_00x03_4_0" index="0" disallow="tram rail_urban rail rail_electric ship" speed="13.89" length="5.00" shape="1.65,295.25 1.84,296.61 2.43,297.58 3.39,298.16 4.75,298.35"/>
    </edge>
    <edge id=":node_00x03_5" function="internal">
        <lane id=":node_00x03_5_0" index="0" disallow="tram rail_urban rail rail_electric ship" speed="13.89" length="9.50" shape="1.65,295.25 1.65,304.75"/>
    </edge>
    <edge id=":node_00x04_0" function="internal">
        <lane id=":node_00x04_0_0" index="0" disallow="tram rail_urban rail rail_electric ship" speed="13.89" length="4.82" shape="1.65,400.00 0.83,401.24 0.00,401.65 -0.83,401.24 -1.65,400.00"/>
    </edge>
    <edge id=":node_00x05_0" function="internal">
        <lane id=":node_00x05_0_0" index="0" disallow="tram rail_urban rail rail_electric ship" speed="13.89" length="7.90" shape="-1.65,503.25 -1.34,501.11 -0.43,499.58 1.11,498.66 3.25,498.35"/>
    </edge>
    <edge id=":node_00x05_1" function="internal">
        <lane id=":node_00x05_1_0" index="0" disallow="tram rail_urban rail rail_electric ship" speed="13.89" length="2.58" shape="3.25,501.65 2.55,501.75 2.05,502.05 1.75,502.55 1.65,503.25"/>
    </edge>
    <edge id=":node_00x06_0" function="internal">
        <lane id=":node_00x06_0_0" index="0" disallow="tram rail_urban rail rail_electric ship" speed="13.89" length="9.50" shape="-1.65,604.75 -1.65,595.25"/>
    </edge>
    <edge id=":node_00x06_1" function="internal">
        <lane id=":node_00x06_1_0" index="0" disallow="tram rail_urban rail rail_electric ship" speed="13.89" length="10.32" shape="-1.65,604.75 -1.25,601.95 -0.05,599.95 1.95,598.75 4.75,598.35"/>
    </edge>
    <edge id=":node_00x06_2" function="internal">
        <lane id=":node_00x06_2_0" index="0" disallow="tram rail_urban rail rail_electric ship" speed="13.89" length="5.00" shape="4.75,601.65 3.39,601.84 2.43,602.42 1.84,603.39 1.65,604.75"/>
    </edge>
    <edge id=":node_00x06_3" function="internal">
        <lane id=":node_00x06_3_0" index="0" disallow="tram rail_urban rail rail_electric ship" speed="13.89" length="10.32" shape="4.75,601.65 1.95,601.25 -0.05,600.05 -1.25,598.05 -1.65,595.25"/>
    </edge>
    <edge id=":node_00x06_4" function="internal">
        <lane id=":node_00x06_4_0" index="0" disallow="tram rail_urban rail rail_electric ship" speed="13.89" length="5.00" shape="1.65,595.25 1.84,596.61 2.43,597.58 3.39,598.16 4.75,598.35"/>
    </edge>
    <edge id=":node_00x06_5" function="internal">
        <lane id=":node_00x06_5_0" index="0" disallow="tram rail_urban rail rail_electric ship" speed="13.89" length="9.50" shape="1.65,595.25 1.65,604.75"/>
    </edge>
    <edge id=":node_00x07_0" function="internal">
        <lane id=":node_00x07_0_0" index="0" disallow="tram rail_urban rail rail_electric ship" speed="13.89" length="9.50" shape="-1.65,704.75 -1.65,695.25"/>
    </edge>
    <edge id=":node_00x07_1" function="internal">
        <lane id=":node_00x07_1_0" index="0" disallow="tram rail_urban rail rail_electric ship" speed="13.89" length="10.32" shape="-1.65,704.75 -1.25,701.95 -0.05,699.95 1.95,698.75 4.75,698.35"/>
    </edge>
    <edge id=":node_00x07_2" function="internal">
        <lane id=":node_00x07_2_0" index="0" disallow="tram rail_urban rail rail_electric ship" speed="13.89" length="5.00" shape="4.75,701.65 3.39,701.84 2.43,702.42 1.84,703.39 1.65,704.75"/>
    </edge>
    <edge id=":node_00x07_3" function="internal">
        <lane id=":node_00x07_3_0" index="0" disallow="tram rail_urban rail rail_electric ship" speed="13.89" length="10.32" shape="4.75,701.65 1.95,701.25 -0.05,700.05 -1.25,698.05 -1.65,695.25"/>
    </edge>
    <edge id=":node_00x07_4" function="internal">
        <lane id=":node_00x07_4_0" index="0" disallow="tram rail_urban rail rail_electric ship" speed="13.89" length="5.00" shape="1.65,695.25 1.84,696.61 2.43,697.57 3.39,698.16 4.75,698.35"/>
    </edge>
    <edge id=":node_00x07_5" function="internal">
        <lane id=":node_00x07_5_0" index="0" disallow="tram rail_urban rail rail_electric ship" speed="13.89" length="9.50" shape="1.65,695.25 1.65,704.75"/>
    </edge>
    <edge id=":node_00x08_0" function="internal">
        <lane id=":node_00x08_0_0" index="0" disallow="tram rail_urban rail rail_electric ship" speed="13.89" length="7.90" shape="3.25,801.65 1.11,801.34 -0.43,800.42 -1.34,798.89 -1.65,796.75"/>
    </edge>
    <edge id=":node_00x08_1" function="internal">
        <lane id=":node_00x08_1_0" index="0" disallow="tram rail_urban rail rail_electric ship" speed="13.89" length="2.58" shape="1.65,796.75 1.75,797.45 2.05,797.95 2.55,798.25 3.25,798.35"/>
    </edge>
    <edge id=":node_00x09_0" function="internal">
        <lane id=":node_00x09_0_0" index="0" disallow="tram rail_urban rail rail_electric ship" speed="13.89" length="7.90" shape="-1.65,903.25 -1.34,901.11 -0.43,899.57 1.11,898.66 3.25,898.35"/>
    </edge>
    <edge id=":node_00x09_1" function="internal">
        <lane id=":node_00x09_1_0" index="0" disallow="tram rail_urban rail rail_electric ship" speed="13.89" length="2.58" shape="3.25,901.65 2.55,901.75 2.05,902.05 1.75,902.55 1.65,903.25"/>
    </edge>
    <edge id=":node_00x10_0" function="internal">
        <lane id=":node_00x10_0_0" index="0" disallow="tram rail_urban rail rail_electric ship" speed="13.89" length="9.50" shape="-1.65,1004.75 -1.65,995.25"/>
    </edge>
    <edge id=":node_00x10_1" function="internal">
        <lane id=":node_00x10_1_0" index="0" disallow="tram rail_urban rail rail_electric ship" speed="13.89" length="10.32" shape="-1.65,1004.75 -1.25,1001.95 -0.05,999.95 1.95,998.75 4.75,998.35"/>
    </edge>
    <edge id=":node_00x10_2" function="internal">
        <lane id=":node_00x10_2_0" index="0" disallow="tram rail_urban rail rail_electric ship" speed="13.89" length="5.00" shape="4.75,1001.65 3.39,1001.84 2.43,1002.43 1.84,1003.39 1.65,1004.75"/>
    </edge>
    <edge id=":node_00x10_3" function="internal">
        <lane id=":node_00x10_3_0" index="0" disallow="tram rail_urban rail rail_electric ship" speed="13.89" length="10.32" shape="4.75,1001.65 1.95,1001.25 -0.05,1000.05 -1.25,998.05 -1.65,995.25"/>
    </edge>
    <edge id=":node_00x10_4" function="internal">
        <lane id=":node_00x10_4_0" index="0" disallow="tram rail_urban rail rail_electric ship" speed="13.89" length="5.00" shape="1.65,995.25 1.84,996.61 2.43,997.57 3.39,998.16 4.75,998.35"/>
    </edge>
    <edge id=":node_00x10_5" function="internal">
        <lane id=":node_00x10_5_0" index="0" disallow="tram rail_urban rail rail_electric ship" speed="13.89" length="9.50" shape="1.65,995.25 1.65,1004.75"/>
    </edge>
    <edge id=":node_00x11_0" function="internal">
        <lane id=":node_00x11_0_0" index="0" disallow="tram rail_urban rail rail_electric ship" speed="13.89" length="9.50" shape="-1.65,1104.75 -1.65,1095.25"/>
    </edge>
    <edge id=":node_00x11_1" function="internal">
        <lane id=":node_00x11_1_0" index="0" disallow="tram rail_urban rail rail_electric ship" speed="13.89" length="10.32" shape="-1.65,1104.75 -1.25,1101.95 -0.05,1099.95 1.95,1098.75 4.75,1098.35"/>
    </edge>
    <edge id=":node_00x11_2" function="internal">
        <lane id=":node_00x11_2_0" index="0" disallow="tram rail_urban rail rail_electric ship" speed="13.89" length="5.00" shape="4.75,1101.65 3.39,1101.84 2.43,1102.43 1.84,1103.39 1.65,1104.75"/>
    </edge>
    <edge id=":node_00x11_3" function="internal">
        <lane id=":node_00x11_3_0" index="0" disallow="tram rail_urban rail rail_electric ship" speed="13.89" length="10.32" shape="4.75,1101.65 1.95,1101.25 -0.05,1100.05 -1.25,1098.05 -1.65,1095.25"/>
    </edge>
    <edge id=":node_00x11_4" function="internal">
        <lane id=":node_00x11_4_0" index="0" disallow="tram rail_urban rail rail_electric ship" speed="13.89" length="5.00" shape="1.65,1095.25 1.84,1096.61 2.43,1097.57 3.39,1098.16 4.75,1098.35"/>
    </edge>
    <edge id=":node_00x11_5" function="internal">
        <lane id=":node_00x11_5_0" index="0" disallow="tram rail_urban rail rail_electric ship" speed="13.89" length="9.50" shape="1.65,1095.25 1.65,1104.75"/>
    </edge>
    <edge id=":node_00x12_0" function="internal">
        <lane id=":node_00x12_0_0" index="0" disallow="tram rail_urban rail rail_electric ship" speed="13.89" length="0.10" shape="-1.65,1200.00 -1.65,1200.00"/>
    </edge>
    <edge id=":node_00x12_1" function="internal">
        <lane id=":node_00x12_1_0" index="0" disallow="tram rail_urban rail rail_electric ship" speed="13.89" length="0.10" shape="1.65,1200.00 1.65,1200.00"/>
    </edge>
    <edge id=":node_00x13_0" function="internal">
        <lane id=":node_00x13_0_0" index="0" disallow="tram rail_urban rail rail_electric ship" speed="13.89" length="7.90" shape="3.25,1301.65 1.11,1301.34 -0.43,1300.43 -1.34,1298.89 -1.65,1296.75"/>
    </edge>
    <edge id=":node_00x13_1" function="internal">
        <lane id=":node_00x13_1_0" index="0" disallow="tram rail_urban rail rail_electric ship" speed="13.89" length="2.58" shape="1.65,1296.75 1.75,1297.45 2.05,1297.95 2.55,1298.25 3.25,1298.35"/>
    </edge>
    <edge id=":node_00x14_0" function="internal">
        <lane id=":node_00x14_0_0" index="0" disallow="tram rail_urban rail rail_electric ship" speed="13.89" length="4.82" shape="0.00,1401.65 -1.24,1400.82 -1.65,1400.00 -1.24,1399.18 0.00,1398.35"/>
    </edge>
    <edge id=":node_00x15_0" function="internal">
        <lane id=":node_00x15_0_0" index="0" disallow="tram rail_urban rail rail_electric ship" speed="13.89" length="7.90" shape="-1.65,1503.25 -1.34,1501.11 -0.43,1499.57 1.11,1498.66 3.25,1498.35"/>
    </edge>
    <edge id=":node_00x15_1" function="internal">
        <lane id=":node_00x15_1_0" index="0" disallow="tram rail_urban rail rail_electric ship" speed="13.89" length="2.58" shape="3.25,1501.65 2.55,1501.75 2.05,1502.05 1.75,1502.55 1.65,1503.25"/>
    </edge>
    <edge id=":node_00x16_0" function="internal">
        <lane id=":node_00x16_0_0" index="0" disallow="tram rail_urban rail rail_electric ship" speed="13.89" length="9.50" shape="-1.65,1604.75 -1.65,1595.25"/>
    </edge>
    <edge id=":node_00x16_1" function="internal">
        <lane id=":node_00x16_1_0" index="0" disallow="tram rail_urban rail rail_electric ship" speed="13.89" length="10.32" shape="-1.65,1604.75 -1.25,1601.95 -0.05,1599.95 1.95,1598.75 4.75,1598.35"/>
    </edge>
    <edge id=":node_00x16_2" function="internal">
        <lane id=":node_00x16_2_0" index="0" disallow="tram rail_urban rail rail_electric ship" speed="13.89" length="5.00" shape="4.75,1601.65 3.39,1601.84 2.43,1602.43 1.84,1603.39 1.65,1604.75"/>
    </edge>
    <edge id=":node_00x16_3" function="internal">
        <lane id=":node_00x16_3_0" index="0" disallow="tram rail_urban rail rail_electric ship" speed="13.89" length="10.32" shape="4.75,1601.65 1.95,1601.25 -0.05,1600.05 -1.25,1598.05 -1.65,1595.25"/>
    </edge>
    <edge id=":node_00x16_4" function="internal">
        <lane id=":node_00x16_4_0" index="0" disallow="tram rail_urban rail rail_electric ship" speed="13.89" length="5.00" shape="1.65,1595.25 1.84,1596.61 2.43,1597.57 3.39,1598.16 4.75,1598.35"/>
    </edge>
    <edge id=":node_00x16_5" function="internal">
        <lane id=":node_00x16_5_0" index="0" disallow="tram rail_urban rail rail_electric ship" speed="13.89" length="9.50" shape="1.65,1595.25 1.65,1604.75"/>
    </edge>
    <edge id=":node_00x17_0" function="internal">
        <lane id=":node_00x17_0_0" index="0" disallow="tram rail_urban rail rail_electric ship" speed="13.89" length="9.50" shape="-1.65,1704.75 -1.65,1695.25"/>
    </edge>
    <edge id=":node_00x17_1" function="internal">
        <lane id=":node_00x17_1_0" index="0" disallow="tram rail_urban rail rail_electric ship" speed="13.89" length="10.32" shape="-1.65,1704.75 -1.25,1701.95 -0.05,1699.95 1.95,1698.75 4.75,1698.35"/>
    </edge>
    <edge id=":node_00x17_2" function="internal">
        <lane id=":node_00x17_2_0" index="0" disallow="tram rail_urban rail rail_electric ship" speed="13.89" length="5.00" shape="4.75,1701.65 3.39,1701.84 2.43,1702.43 1.84,1703.39 1.65,1704.75"/>
    </edge>
    <edge id=":node_00x17_3" function="internal">
        <lane id=":node_00x17_3_0" index="0" disallow="tram rail_urban rail rail_electric ship" speed="13.89" length="10.32" shape="4.75,1701.65 1.95,1701.25 -0.05,1700.05 -1.25,1698.05 -1.65,1695.25"/>
    </edge>
    <edge id=":node_00x17_4" function="internal">
        <lane id=":node_00x17_4_0" index="0" disallow="tram rail_urban rail rail_electric ship" speed="13.89" length="5.00" shape="1.65,1695.25 1.84,1696.61 2.43,1697.57 3.39,1698.16 4.75,1698.35"/>
    </edge>
    <edge id=":node_00x17_5" function="internal">
        <lane id=":node_00x17_5_0" index="0" disallow="tram rail_urban rail rail_electric ship" speed="13.89" length="9.50" shape="1.65,1695.25 1.65,1704.75"/>
    </edge>
    <edge id=":node_00x18_0" function="internal">
        <lane id=":node_00x18_0_0" index="0" disallow="tram rail_urban rail rail_electric ship" speed="13.89" length="0.10" shape="-1.65,1800.00 -1.65,1800.00"/>
    </edge>
    <edge id=":node_00x18_1" function="internal">
        <lane id=":node_00x18_1_0" index="0" disallow="tram rail_urban rail rail_electric ship" speed="13.89" length="0.10" shape="1.65,1800.00 1.65,1800.00"/>
    </edge>
    <edge id=":node_00x19_0" function="internal">
        <lane id=":node_00x19_0_0" index="0" disallow="tram rail_urban rail rail_electric ship" speed="13.89" length="7.90" shape="3.25,1901.65 1.11,1901.34 -0.43,1900.43 -1.34,1898.89 -1.65,1896.75"/>
    </edge>
    <edge id=":node_00x19_1" function="internal">
        <lane id=":node_00x19_1_0" index="0" disallow="tram rail_urban rail rail_electric ship" speed="13.89" length="2.58" shape="1.65,1896.75 1.75,1897.45 2.05,1897.95 2.55,1898.25 3.25,1898.35"/>
    </edge>
    <edge id=":node_00x20_0" function="internal">
        <lane id=":node_00x20_0_0" index="0" disallow="tram rail_urban rail rail_electric ship" speed="13.89" length="4.82" shape="0.00,2001.65 -1.24,2000.83 -1.65,2000.00 -1.24,1999.17 0.00,1998.35"/>
    </edge>
    <edge id=":node_01x00_0" function="internal">
        <lane id=":node_01x00_0_0" index="0" disallow="tram rail_urban rail rail_electric ship" speed="13.89" length="5.00" shape="98.35,4.75 98.16,3.39 97.57,2.43 96.61,1.84 95.25,1.65"/>
    </edge>
    <edge id=":node_01x00_1" function="internal">
        <lane id=":node_01x00_1_0" index="0" disallow="tram rail_urban rail rail_electric ship" speed="13.89" length="10.32" shape="98.35,4.75 98.75,1.95 99.95,-0.05 101.95,-1.25 104.75,-1.65"/>
    </edge>
    <edge id=":node_01x00_2" function="internal">
        <lane id=":node_01x00_2_0" index="0" disallow="tram rail_urban rail rail_electric ship" speed="13.89" length="5.00" shape="104.75,1.65 103.39,1.84 102.43,2.43 101.84,3.39 101.65,4.75"/>
    </edge>
    <edge id=":node_01x00_3" function="internal">
        <lane id=":node_01x00_3_0" index="0" disallow="tram rail_urban rail rail_electric ship" speed="13.89" length="9.50" shape="104.75,1.65 95.25,1.65"/>
    </edge>
    <edge id=":node_01x00_4" function="internal">
        <lane id=":node_01x00_4_0" index="0" disallow="tram rail_urban rail rail_electric ship" speed="13.89" length="9.50" shape="95.25,-1.65 104.75,-1.65"/>
    </edge>
    <edge id=":node_01x00_5" function="internal">
        <lane id=":node_01x00_5_0" index="0" disallow="tram rail_urban rail rail_electric ship" speed="13.89" length="10.32" shape="95.25,-1.65 98.05,-1.25 100.05,-0.05 101.25,1.95 101.65,4.75"/>
    </edge>
    <edge id=":node_01x01_0" function="internal">
        <lane id=":node_01x01_0_0" index="0" disallow="tram rail_urban rail rail_electric ship" speed="13.89" length="7.90" shape="103.25,101.65 101.11,101.34 99.57,100.43 98.66,98.89 98.35,96.75"/>
    </edge>
    <edge id=":node_01x01_1" function="internal">
        <lane id=":node_01x01_1_0" index="0" disallow="tram rail_urban rail rail_electric ship" speed="13.89" length="2.58" shape="101.65,96.75 101.75,97.45 102.05,97.95 102.55,98.25 103.25,98.35"/>
    </edge>
    <edge id=":node_01x02_0" function="internal">
        <lane id=":node_01x02_0_0" index="0" disallow="tram rail_urban rail rail_electric ship" speed="13.89" length="0.10" shape="100.00,201.65 100.00,201.65"/>
    </edge>
    <edge id=":node_01x02_1" function="internal">
        <lane id=":node_01x02_1_0" index="0" disallow="tram rail_urban rail rail_electric ship" speed="13.89" length="0.10" shape="100.00,198.35 100.00,198.35"/>
    </edge>
    <edge id=":node_01x03_0" function="internal">
        <lane id=":node_01x03_0_0" index="0" disallow="tram rail_urban rail rail_electric ship" speed="13.89" length="5.00" shape="98.35,304.75 98.16,303.39 97.57,302.42 96.61,301.84 95.25,301.65"/>
    </edge>
    <edge id=":node_01x03_1" function="internal">
        <lane id=":node_01x03_1_0" index="0" disallow="tram rail_urban rail rail_electric ship" speed="13.89" length="10.32" shape="98.35,304.75 98.75,301.95 99.95,299.95 101.95,298.75 104.75,298.35"/>
    </edge>
    <edge id=":node_01x03_2" function="internal">
        <lane id=":node_01x03_2_0" index="0" disallow="tram rail_urban rail rail_electric ship" speed="13.89" length="5.00" shape="104.75,301.65 103.39,301.84 102.43,302.42 101.84,303.39 101.65,304.75"/>
    </edge>
    <edge id=":node_01x03_3" function="internal">
        <lane id=":node_01x03_3_0" index="0" disallow="tram rail_urban rail rail_electric ship" speed="13.89" length="9.50" shape="104.75,301.65 95.25,301.65"/>
    </edge>
    <edge id=":node_01x03_4" function="internal">
        <lane id=":node_01x03_4_0" index="0" disallow="tram rail_urban rail rail_electric ship" speed="13.89" length="9.50" shape="95.25,298.35 104.75,298.35"/>
    </edge>
    <edge id=":node_01x03_5" function="internal">
        <lane id=":node_01x03_5_0" index="0" disallow="tram rail_urban rail rail_electric ship" speed="13.89" length="10.32" shape="95.25,298.35 98.05,298.75 100.05,299.95 101.25,301.95 101.65,304.75"/>
    </edge>
    <edge id=":node_01x04_0" function="internal">
        <lane id=":node_01x04_0_0" index="0" disallow="tram rail_urban rail rail_electric ship" speed="13.89" length="7.90" shape="103.25,401.65 101.11,401.34 99.57,400.42 98.66,398.89 98.35,396.75"/>
    </edge>
    <edge id=":node_01x04_1" function="internal">
        <lane id=":node_01x04_1_0" index="0" disallow="tram rail_urban rail rail_electric ship" speed="13.89" length="2.58" shape="101.65,396.75 101.75,397.45 102.05,397.95 102.55,398.25 103.25,398.35"/>
    </edge>
    <edge id=":node_01x05_0" function="internal">
        <lane id=":node_01x05_0_0" index="0" disallow="tram rail_urban rail rail_electric ship" speed="13.89" length="2.58" shape="98.35,503.25 98.25,502.55 97.95,502.05 97.45,501.75 96.75,501.65"/>
    </edge>
    <edge id=":node_01x05_1" function="internal">
        <lane id=":node_01x05_1_0" index="0" disallow="tram rail_urban rail rail_electric ship" speed="13.89" length="7.90" shape="96.75,498.35 98.89,498.66 100.43,499.58 101.34,501.11 101.65,503.25"/>
    </edge>
    <edge id=":node_01x06_0" function="internal">
        <lane id=":node_01x06_0_0" index="0" disallow="tram rail_urban rail rail_electric ship" speed="13.89" length="9.50" shape="104.75,601.65 95.25,601.65"/>
    </edge>
    <edge id=":node_01x06_1" function="internal">
        <lane id=":node_01x06_1_0" index="0" disallow="tram rail_urban rail rail_electric ship" speed="13.89" length="10.32" shape="104.75,601.65 101.95,601.25 99.95,600.05 98.75,598.05 98.35,595.25"/>
    </edge>
    <edge id=":node_01x06_2" function="internal">
        <lane id=":node_01x06_2_0" index="0" disallow="tram rail_urban rail rail_electric ship" speed="13.89" length="5.00" shape="101.65,595.25 101.84,596.61 102.43,597.58 103.39,598.16 104.75,598.35"/>
    </edge>
    <edge id=":node_01x06_3" function="internal">
        <lane id=":node_01x06_3_0" index="0" disallow="tram rail_urban rail rail_electric ship" speed="13.89" length="10.32" shape="101.65,595.25 101.25,598.05 100.05,600.05 98.05,601.25 95.25,601.65"/>
    </edge>
    <edge id=":node_01x06_4" function="internal">
        <lane id=":node_01x06_4_0" index="0" disallow="tram rail_urban rail rail_electric ship" speed="13.89" length="5.00" shape="95.25,598.35 96.61,598.16 97.57,597.58 98.16,596.61 98.35,595.25"/>
    </edge>
    <edge id=":node_01x06_5" function="internal">
        <lane id=":node_01x06_5_0" index="0" disallow="tram rail_urban rail rail_electric ship" speed="13.89" length="9.50" shape="95.25,598.35 104.75,598.35"/>
    </edge>
    <edge id=":node_01x07_0" function="internal">
        <lane id=":node_01x07_0_0" index="0" disallow="tram rail_urban rail rail_electric ship" speed="13.89" length="4.82" shape="100.00,698.35 101.24,699.18 101.65,700.00 101.24,700.83 100.00,701.65"/>
    </edge>
    <edge id=":node_01x08_0" function="internal">
        <lane id=":node_01x08_0_0" index="0" disallow="tram rail_urban rail rail_electric ship" speed="13.89" length="5.00" shape="98.35,804.75 98.16,803.39 97.57,802.43 96.61,801.84 95.25,801.65"/>
    </edge>
    <edge id=":node_01x08_1" function="internal">
        <lane id=":node_01x08_1_0" index="0" disallow="tram rail_urban rail rail_electric ship" speed="13.89" length="10.32" shape="98.35,804.75 98.75,801.95 99.95,799.95 101.95,798.75 104.75,798.35"/>
    </edge>
    <edge id=":node_01x08_2" function="internal">
        <lane id=":node_01x08_2_0" index="0" disallow="tram rail_urban rail rail_electric ship" speed="13.89" length="5.00" shape="104.75,801.65 103.39,801.84 102.42,802.42 101.84,803.39 101.65,804.75"/>
    </edge>
    <edge id=":node_01x08_3" function="internal">
        <lane id=":node_01x08_3_0" index="0" disallow="tram rail_urban rail rail_electric ship" speed="13.89" length="9.50" shape="104.75,801.65 95.25,801.65"/>
    </edge>
    <edge id=":node_01x08_4" function="internal">
        <lane id=":node_01x08_4_0" index="0" disallow="tram rail_urban rail rail_electric ship" speed="13.89" length="9.50" shape="95.25,798.35 104.75,798.35"/>
    </edge>
    <edge id=":node_01x08_5" function="internal">
        <lane id=":node_01x08_5_0" index="0" disallow="tram rail_urban rail rail_electric ship" speed="13.89" length="10.32" shape="95.25,798.35 98.05,798.75 100.05,799.95 101.25,801.95 101.65,804.75"/>
    </edge>
    <edge id=":node_01x09_0" function="internal">
        <lane id=":node_01x09_0_0" index="0" disallow="tram rail_urban rail rail_electric ship" speed="13.89" length="5.00" shape="98.35,904.75 98.16,903.39 97.57,902.43 96.61,901.84 95.25,901.65"/>
    </edge>
    <edge id=":node_01x09_1" function="internal">
        <lane id=":node_01x09_1_0" index="0" disallow="tram rail_urban rail rail_electric ship" speed="13.89" length="9.50" shape="98.35,904.75 98.35,895.25"/>
    </edge>
    <edge id=":node_01x09_2" function="internal">
        <lane id=":node_01x09_2_0" index="0" disallow="tram rail_urban rail rail_electric ship" speed="13.89" length="9.50" shape="101.65,895.25 101.65,904.75"/>
    </edge>
    <edge id=":node_01x09_3" function="internal">
        <lane id=":node_01x09_3_0" index="0" disallow="tram rail_urban rail rail_electric ship" speed="13.89" length="10.32" shape="101.65,895.25 101.25,898.05 100.05,900.05 98.05,901.25 95.25,901.65"/>
    </edge>
    <edge id=":node_01x09_4" function="internal">
        <lane id=":node_01x09_4_0" index="0" disallow="tram rail_urban rail rail_electric ship" speed="13.89" length="5.00" shape="95.25,898.35 96.61,898.16 97.57,897.58 98.16,896.61 98.35,895.25"/>
    </edge>
    <edge id=":node_01x09_5" function="internal">
        <lane id=":node_01x09_5_0" index="0" disallow="tram rail_urban rail rail_electric ship" speed="13.89" length="10.32" shape="95.25,898.35 98.05,898.75 100.05,899.95 101.25,901.95 101.65,904.75"/>
    </edge>
    <edge id=":node_01x10_0" function="internal">
        <lane id=":node_01x10_0_0" index="0" disallow="tram rail_urban rail rail_electric ship" speed="13.89" length="5.00" shape="98.35,1004.75 98.16,1003.39 97.57,1002.43 96.61,1001.84 95.25,1001.65"/>
    </edge>
    <edge id=":node_01x10_1" function="internal">
        <lane id=":node_01x10_1_0" index="0" disallow="tram rail_urban rail rail_electric ship" speed="13.89" length="9.50" shape="98.35,1004.75 98.35,995.25"/>
    </edge>
    <edge id=":node_01x10_2" function="internal">
        <lane id=":node_01x10_2_0" index="0" disallow="tram rail_urban rail rail_electric ship" speed="13.89" length="10.32" shape="98.35,1004.75 98.75,1001.95 99.95,999.95 101.95,998.75 104.75,998.35"/>
    </edge>
    <edge id=":node_01x10_3" function="internal">
        <lane id=":node_01x10_3_0" index="0" disallow="tram rail_urban rail rail_electric ship" speed="13.89" length="5.00" shape="104.75,1001.65 103.39,1001.84 102.43,1002.43 101.84,1003.39 101.65,1004.75"/>
    </edge>
    <edge id=":node_01x10_4" function="internal">