<?xml version="1.0" encoding="UTF-8"?>

<!-- generated on 12/03/16 19:20:55 by SUMO netconvert Version 0.27.1
<?xml version="1.0" encoding="UTF-8"?>

<configuration xmlns:xsi="http://www.w3.org/2001/XMLSchema-instance" xsi:noNamespaceSchemaLocation="http://sumo.dlr.de/xsd/netconvertConfiguration.xsd">

    <input>
        <node-files value="C:\Users\zs633\capstone\8_linear\test_3\7_displaced\linear.nod.xml"/>
        <edge-files value="C:\Users\zs633\capstone\8_linear\test_3\7_displaced\linear.edg.xml"/>
        <connection-files value="C:\Users\zs633\capstone\8_linear\test_3\4_plain\test.con.xml"/>
        <tllogic-files value="C:\Users\zs633\capstone\8_linear\test_3\4_plain\test.tll.xml"/>
    </input>

    <output>
        <output-file value="C:\Users\zs633\capstone\8_linear\test_3\9_output_net\linear.net.xml"/>
    </output>

    <processing>
        <ignore-errors value="true"/>
        <ignore-errors.edge-type value="true"/>
    </processing>

    <report>
        <verbose value="true"/>
        <xml-validation value="never"/>
        <no-warnings value="true"/>
    </report>

</configuration>
-->

<net version="0.27" xmlns:xsi="http://www.w3.org/2001/XMLSchema-instance" xsi:noNamespaceSchemaLocation="http://sumo.dlr.de/xsd/net_file.xsd">

    <location netOffset="333.02,333.02" convBoundary="0.00,0.00,2666.05,2666.05" origBoundary="-333.02,-333.02,2333.02,2333.02" projParameter="!"/>

    <edge id=":node_00x00_0" function="internal">
        <lane id=":node_00x00_0_0" index="0" disallow="tram rail_urban rail rail_electric ship" speed="13.89" length="0.37" shape="327.81,327.55 327.72,327.62 327.67,327.67 327.62,327.72 327.55,327.81"/>
    </edge>
    <edge id=":node_00x00_1" function="internal">
        <lane id=":node_00x00_1_0" index="0" disallow="tram rail_urban rail rail_electric ship" speed="13.89" length="1.13" shape="324.96,325.76 325.17,325.50 325.32,325.32 325.50,325.17 325.76,324.96"/>
    </edge>
    <edge id=":node_00x01_0" function="internal">
        <lane id=":node_00x01_0_0" index="0" disallow="tram rail_urban rail rail_electric ship" speed="13.89" length="10.24" shape="299.02,374.64 289.31,371.38"/>
    </edge>
    <edge id=":node_00x01_1" function="internal">
        <lane id=":node_00x01_1_0" index="0" disallow="tram rail_urban rail rail_electric ship" speed="13.89" length="36.00" shape="299.02,374.64 287.95,381.54 283.11,382.61 284.49,377.84 292.08,367.25"/>
    </edge>
    <edge id=":node_00x01_2" function="internal">
        <lane id=":node_00x01_2_0" index="0" disallow="tram rail_urban rail rail_electric ship" speed="13.89" length="12.81" shape="294.67,369.30 291.97,373.07 291.48,374.76 293.20,374.38 297.14,371.93"/>
    </edge>
    <edge id=":node_00x01_3" function="internal">
        <lane id=":node_00x01_3_0" index="0" disallow="tram rail_urban rail rail_electric ship" speed="13.89" length="5.76" shape="294.67,369.30 289.31,371.38"/>
    </edge>
    <edge id=":node_00x01_4" function="internal">
        <lane id=":node_00x01_4_0" index="0" disallow="tram rail_urban rail rail_electric ship" speed="13.89" length="6.47" shape="286.43,369.77 287.68,368.58 289.11,368.40 290.60,368.28 292.08,367.25"/>
    </edge>
    <edge id=":node_00x01_5" function="internal">
        <lane id=":node_00x01_5_0" index="0" disallow="tram rail_urban rail rail_electric ship" speed="13.89" length="12.01" shape="286.43,369.77 288.56,368.67 291.16,370.28 294.08,372.18 297.14,371.93"/>
    </edge>
    <edge id=":node_00x02_0" function="internal">
        <lane id=":node_00x02_0_0" index="0" disallow="tram rail_urban rail rail_electric ship" speed="13.89" length="8.00" shape="248.24,457.83 240.45,456.01"/>
    </edge>
    <edge id=":node_00x02_1" function="internal">
        <lane id=":node_00x02_1_0" index="0" disallow="tram rail_urban rail rail_electric ship" speed="13.89" length="22.35" shape="248.24,457.83 241.37,461.22 237.86,461.15 237.70,457.64 240.91,450.68"/>
    </edge>
    <edge id=":node_00x02_2" function="internal">
        <lane id=":node_00x02_2_0" index="0" disallow="tram rail_urban rail rail_electric ship" speed="13.89" length="8.43" shape="243.78,452.30 242.58,454.93 242.63,456.25 243.96,456.28 246.55,455.00"/>
    </edge>
    <edge id=":node_00x02_3" function="internal">
        <lane id=":node_00x02_3_0" index="0" disallow="tram rail_urban rail rail_electric ship" speed="13.89" length="5.05" shape="243.78,452.30 242.88,453.47 242.02,454.11 241.20,454.76 240.45,456.01"/>
    </edge>
    <edge id=":node_00x02_4" function="internal">
        <lane id=":node_00x02_4_0" index="0" disallow="tram rail_urban rail rail_electric ship" speed="13.89" length="5.44" shape="237.40,454.76 238.19,453.40 239.04,452.67 239.95,451.96 240.91,450.68"/>
    </edge>
    <edge id=":node_00x02_5" function="internal">
        <lane id=":node_00x02_5_0" index="0" disallow="tram rail_urban rail rail_electric ship" speed="13.89" length="10.13" shape="237.40,454.76 239.01,453.34 241.15,454.17 243.71,455.36 246.55,455.00"/>
    </edge>
    <edge id=":node_00x03_0" function="internal">
        <lane id=":node_00x03_0_0" index="0" disallow="tram rail_urban rail rail_electric ship" speed="13.89" length="11.19" shape="207.61,552.69 203.88,554.66 201.12,556.37 199.35,557.82 198.55,559.01"/>
    </edge>
    <edge id=":node_00x03_1" function="internal">
        <lane id=":node_00x03_1_0" index="0" disallow="tram rail_urban rail rail_electric ship" speed="13.89" length="17.57" shape="207.61,552.69 202.26,554.69 199.23,554.20 198.51,551.21 200.11,545.73"/>
    </edge>
    <edge id=":node_00x03_2" function="internal">
        <lane id=":node_00x03_2_0" index="0" disallow="tram rail_urban rail rail_electric ship" speed="13.89" length="6.96" shape="203.17,546.98 202.53,549.15 202.82,550.33 204.02,550.53 206.13,549.73"/>
    </edge>
    <edge id=":node_00x03_3" function="internal">
        <lane id=":node_00x03_3_0" index="0" disallow="tram rail_urban rail rail_electric ship" speed="13.89" length="12.89" shape="203.17,546.98 198.55,559.01"/>
    </edge>
    <edge id=":node_00x03_4" function="internal">
        <lane id=":node_00x03_4_0" index="0" disallow="tram rail_urban rail rail_electric ship" speed="13.89" length="13.22" shape="195.38,558.07 200.11,545.73"/>
    </edge>
    <edge id=":node_00x03_5" function="internal">
        <lane id=":node_00x03_5_0" index="0" disallow="tram rail_urban rail rail_electric ship" speed="13.89" length="13.85" shape="195.38,558.07 196.44,556.25 198.58,554.25 201.82,552.08 206.13,549.73"/>
    </edge>
    <edge id=":node_00x04_0" function="internal">
        <lane id=":node_00x04_0_0" index="0" disallow="tram rail_urban rail rail_electric ship" speed="13.89" length="9.00" shape="174.70,660.21 171.72,661.52 169.52,662.79 168.11,664.01 167.49,665.19"/>
    </edge>
    <edge id=":node_00x04_1" function="internal">
        <lane id=":node_00x04_1_0" index="0" disallow="tram rail_urban rail rail_electric ship" speed="13.89" length="14.96" shape="174.70,660.21 170.21,661.37 167.47,660.61 166.48,657.95 167.24,653.38"/>
    </edge>
    <edge id=":node_00x04_2" function="internal">
        <lane id=":node_00x04_2_0" index="0" disallow="tram rail_urban rail rail_electric ship" speed="13.89" length="6.19" shape="170.40,654.31 170.09,656.21 170.50,657.31 171.63,657.62 173.49,657.14"/>
    </edge>
    <edge id=":node_00x04_3" function="internal">
        <lane id=":node_00x04_3_0" index="0" disallow="tram rail_urban rail rail_electric ship" speed="13.89" length="11.27" shape="170.40,654.31 167.49,665.19"/>
    </edge>
    <edge id=":node_00x04_4" function="internal">
        <lane id=":node_00x04_4_0" index="0" disallow="tram rail_urban rail rail_electric ship" speed="13.89" length="11.56" shape="164.25,664.54 167.24,653.38"/>
    </edge>
    <edge id=":node_00x04_5" function="internal">
        <lane id=":node_00x04_5_0" index="0" disallow="tram rail_urban rail rail_electric ship" speed="13.89" length="12.25" shape="164.25,664.54 165.14,662.55 166.97,660.65 169.76,658.85 173.49,657.14"/>
    </edge>
    <edge id=":node_00x05_0" function="internal">
        <lane id=":node_00x05_0_0" index="0" disallow="tram rail_urban rail rail_electric ship" speed="13.89" length="7.49" shape="149.96,778.53 147.52,779.35 145.71,780.29 144.54,781.34 144.00,782.52"/>
    </edge>
    <edge id=":node_00x05_1" function="internal">
        <lane id=":node_00x05_1_0" index="0" disallow="tram rail_urban rail rail_electric ship" speed="13.89" length="13.16" shape="149.96,778.53 146.09,779.05 143.60,778.09 142.47,775.66 142.71,771.77"/>
    </edge>
    <edge id=":node_00x05_2" function="internal">
        <lane id=":node_00x05_2_0" index="0" disallow="tram rail_urban rail rail_electric ship" speed="13.89" length="5.70" shape="145.95,772.42 145.84,774.11 146.33,775.16 147.41,775.57 149.09,775.35"/>
    </edge>
    <edge id=":node_00x05_3" function="internal">
        <lane id=":node_00x05_3_0" index="0" disallow="tram rail_urban rail rail_electric ship" speed="13.89" length="10.29" shape="145.95,772.42 144.00,782.52"/>
    </edge>
    <edge id=":node_00x05_4" function="internal">
        <lane id=":node_00x05_4_0" index="0" disallow="tram rail_urban rail rail_electric ship" speed="13.89" length="10.36" shape="140.75,781.94 142.71,771.77"/>
    </edge>
    <edge id=":node_00x05_5" function="internal">
        <lane id=":node_00x05_5_0" index="0" disallow="tram rail_urban rail rail_electric ship" speed="13.89" length="11.18" shape="140.75,781.94 141.57,779.83 143.24,778.03 145.75,776.54 149.09,775.35"/>
    </edge>
    <edge id=":node_00x06_0" function="internal">
        <lane id=":node_00x06_0_0" index="0" disallow="tram rail_urban rail rail_electric ship" speed="13.89" length="5.22" shape="133.79,877.87 133.22,879.30 133.05,880.37 132.86,881.42 132.23,882.82"/>
    </edge>
    <edge id=":node_00x06_1" function="internal">
        <lane id=":node_00x06_1_0" index="0" disallow="tram rail_urban rail rail_electric ship" speed="13.89" length="35.05" shape="133.79,877.87 127.38,888.80 123.64,891.90 122.58,887.16 124.19,874.59"/>
    </edge>
    <edge id=":node_00x06_2" function="internal">
        <lane id=":node_00x06_2_0" index="0" disallow="tram rail_urban rail rail_electric ship" speed="13.89" length="12.50" shape="127.44,875.17 126.87,879.66 127.24,881.35 128.58,880.24 130.86,876.34"/>
    </edge>
    <edge id=":node_00x06_3" function="internal">
        <lane id=":node_00x06_3_0" index="0" disallow="tram rail_urban rail rail_electric ship" speed="13.89" length="9.02" shape="127.44,875.17 132.23,882.82"/>
    </edge>
    <edge id=":node_00x06_4" function="internal">
        <lane id=":node_00x06_4_0" index="0" disallow="tram rail_urban rail rail_electric ship" speed="13.89" length="8.36" shape="129.39,881.14 124.19,874.59"/>
    </edge>
    <edge id=":node_00x06_5" function="internal">
        <lane id=":node_00x06_5_0" index="0" disallow="tram rail_urban rail rail_electric ship" speed="13.89" length="5.06" shape="129.39,881.14 129.99,879.79 130.17,878.77 130.32,877.73 130.86,876.34"/>
    </edge>
    <edge id=":node_00x07_0" function="internal">
        <lane id=":node_00x07_0_0" index="0" disallow="tram rail_urban rail rail_electric ship" speed="13.89" length="3.48" shape="71.73,986.00 71.12,986.83 70.74,987.43 70.44,988.07 70.08,989.03"/>
    </edge>
    <edge id=":node_00x07_1" function="internal">
        <lane id=":node_00x07_1_0" index="0" disallow="tram rail_urban rail rail_electric ship" speed="13.89" length="30.16" shape="71.73,986.00 64.78,994.77 61.99,997.33 63.37,993.70 68.91,983.85"/>
    </edge>
    <edge id=":node_00x07_2" function="internal">
        <lane id=":node_00x07_2_0" index="0" disallow="tram rail_urban rail rail_electric ship" speed="13.89" length="3.50" shape="71.55,985.87 71.03,986.77 70.71,987.40 70.44,988.06 70.08,989.03"/>
    </edge>
    <edge id=":node_00x07_3" function="internal">
        <lane id=":node_00x07_3_0" index="0" disallow="tram rail_urban rail rail_electric ship" speed="13.89" length="26.12" shape="71.55,985.87 76.35,977.34 77.54,974.19 75.13,976.41 69.11,984.01"/>
    </edge>
    <edge id=":node_00x07_4" function="internal">
        <lane id=":node_00x07_4_0" index="0" disallow="tram rail_urban rail rail_electric ship" speed="13.89" length="4.51" shape="66.98,987.92 67.44,986.66 67.80,985.82 68.23,985.01 68.91,983.85"/>
    </edge>
    <edge id=":node_00x07_5" function="internal">
        <lane id=":node_00x07_5_0" index="0" disallow="tram rail_urban rail rail_electric ship" speed="13.89" length="4.48" shape="66.98,987.92 67.44,986.67 67.82,985.84 68.31,985.07 69.11,984.01"/>
    </edge>
    <edge id=":node_00x08_0" function="internal">
        <lane id=":node_00x08_0_0" index="0" disallow="tram rail_urban rail rail_electric ship" speed="13.89" length="8.13" shape="42.28,1085.53 34.18,1084.87"/>
    </edge>
    <edge id=":node_00x08_1" function="internal">
        <lane id=":node_00x08_1_0" index="0" disallow="tram rail_urban rail rail_electric ship" speed="13.89" length="21.77" shape="42.28,1085.53 36.16,1089.75 32.73,1090.17 31.98,1086.79 33.91,1079.62"/>
    </edge>
    <edge id=":node_00x08_2" function="internal">
        <lane id=":node_00x08_2_0" index="0" disallow="tram rail_urban rail rail_electric ship" speed="13.89" length="8.25" shape="37.01,1080.74 36.28,1083.46 36.57,1084.74 37.87,1084.58 40.19,1082.98"/>
    </edge>
    <edge id=":node_00x08_3" function="internal">
        <lane id=":node_00x08_3_0" index="0" disallow="tram rail_urban rail rail_electric ship" speed="13.89" length="5.10" shape="37.01,1080.74 36.28,1082.03 35.46,1082.77 34.71,1083.52 34.18,1084.87"/>
    </edge>
    <edge id=":node_00x08_4" function="internal">
        <lane id=":node_00x08_4_0" index="0" disallow="tram rail_urban rail rail_electric ship" speed="13.89" length="5.57" shape="30.94,1084.23 31.50,1082.74 32.28,1081.88 33.13,1081.05 33.91,1079.62"/>
    </edge>
    <edge id=":node_00x08_5" function="internal">
        <lane id=":node_00x08_5_0" index="0" disallow="tram rail_urban rail rail_electric ship" speed="13.89" length="10.35" shape="30.94,1084.23 32.26,1082.52 34.55,1083.00 37.35,1083.78 40.19,1082.98"/>
    </edge>
    <edge id=":node_00x09_0" function="internal">
        <lane id=":node_00x09_0_0" index="0" disallow="tram rail_urban rail rail_electric ship" speed="13.89" length="8.12" shape="15.29,1208.85 12.68,1210.03 10.79,1211.23 9.63,1212.46 9.19,1213.70"/>
    </edge>
    <edge id=":node_00x09_1" function="internal">
        <lane id=":node_00x09_1_0" index="0" disallow="tram rail_urban rail rail_electric ship" speed="13.89" length="14.04" shape="15.29,1208.85 11.16,1209.88 8.50,1209.16 7.31,1206.67 7.59,1202.42"/>
    </edge>
    <edge id=":node_00x09_2" function="internal">
        <lane id=":node_00x09_2_0" index="0" disallow="tram rail_urban rail rail_electric ship" speed="13.89" length="5.94" shape="10.82,1203.06 10.71,1204.86 11.21,1205.91 12.34,1206.22 14.09,1205.78"/>
    </edge>
    <edge id=":node_00x09_3" function="internal">
        <lane id=":node_00x09_3_0" index="0" disallow="tram rail_urban rail rail_electric ship" speed="13.89" length="10.77" shape="10.82,1203.06 9.19,1213.70"/>
    </edge>
    <edge id=":node_00x09_4" function="internal">
        <lane id=":node_00x09_4_0" index="0" disallow="tram rail_urban rail rail_electric ship" speed="13.89" length="11.22" shape="5.89,1213.50 6.15,1210.35 6.49,1207.92 6.96,1205.52 7.59,1202.42"/>
    </edge>
    <edge id=":node_00x09_5" function="internal">
        <lane id=":node_00x09_5_0" index="0" disallow="tram rail_urban rail rail_electric ship" speed="13.89" length="11.83" shape="5.89,1213.50 6.51,1211.29 8.09,1209.26 10.61,1207.43 14.09,1205.78"/>
    </edge>
    <edge id=":node_00x10_0" function="internal">
        <lane id=":node_00x10_0_0" index="0" disallow="tram rail_urban rail rail_electric ship" speed="13.89" length="10.11" shape="-1.33,1338.08 -1.33,1327.97"/>
    </edge>
    <edge id=":node_00x10_1" function="internal">
        <lane id=":node_00x10_1_0" index="0" disallow="tram rail_urban rail rail_electric ship" speed="13.89" length="10.65" shape="-1.33,1338.08 -1.10,1335.15 0.03,1333.05 2.05,1331.79 4.96,1331.37"/>
    </edge>
    <edge id=":node_00x10_2" function="internal">
        <lane id=":node_00x10_2_0" index="0" disallow="tram rail_urban rail rail_electric ship" speed="13.89" length="5.08" shape="4.96,1334.67 3.57,1334.87 2.61,1335.47 2.07,1336.47 1.96,1337.87"/>
    </edge>
    <edge id=":node_00x10_3" function="internal">
        <lane id=":node_00x10_3_0" index="0" disallow="tram rail_urban rail rail_electric ship" speed="13.89" length="10.65" shape="4.96,1334.67 2.05,1334.25 0.03,1333.00 -1.10,1330.90 -1.33,1327.97"/>
    </edge>
    <edge id=":node_00x10_4" function="internal">
        <lane id=":node_00x10_4_0" index="0" disallow="tram rail_urban rail rail_electric ship" speed="13.89" length="5.08" shape="1.96,1328.18 2.07,1329.57 2.61,1330.57 3.57,1331.17 4.96,1331.37"/>
    </edge>
    <edge id=":node_00x10_5" function="internal">
        <lane id=":node_00x10_5_0" index="0" disallow="tram rail_urban rail rail_electric ship" speed="13.89" length="9.70" shape="1.96,1328.18 1.96,1337.87"/>
    </edge>
    <edge id=":node_00x11_0" function="internal">
        <lane id=":node_00x11_0_0" index="0" disallow="tram rail_urban rail rail_electric ship" speed="13.89" length="11.21" shape="7.59,1463.63 5.89,1452.55"/>
    </edge>
    <edge id=":node_00x11_1" function="internal">
        <lane id=":node_00x11_1_0" index="0" disallow="tram rail_urban rail rail_electric ship" speed="13.89" length="14.04" shape="7.59,1463.63 7.31,1459.38 8.50,1456.89 11.16,1456.16 15.29,1457.20"/>
    </edge>
    <edge id=":node_00x11_2" function="internal">
        <lane id=":node_00x11_2_0" index="0" disallow="tram rail_urban rail rail_electric ship" speed="13.89" length="5.94" shape="14.09,1460.27 12.34,1459.83 11.21,1460.14 10.71,1461.19 10.82,1462.99"/>
    </edge>
    <edge id=":node_00x11_3" function="internal">
        <lane id=":node_00x11_3_0" index="0" disallow="tram rail_urban rail rail_electric ship" speed="13.89" length="11.83" shape="14.09,1460.27 10.61,1458.62 8.09,1456.78 6.51,1454.76 5.89,1452.55"/>
    </edge>
    <edge id=":node_00x11_4" function="internal">
        <lane id=":node_00x11_4_0" index="0" disallow="tram rail_urban rail rail_electric ship" speed="13.89" length="8.12" shape="9.19,1452.34 9.63,1453.59 10.79,1454.81 12.68,1456.02 15.29,1457.20"/>
    </edge>
    <edge id=":node_00x11_5" function="internal">
        <lane id=":node_00x11_5_0" index="0" disallow="tram rail_urban rail rail_electric ship" speed="13.89" length="10.78" shape="9.19,1452.34 9.44,1455.42 9.76,1457.70 10.20,1459.96 10.82,1462.99"/>
    </edge>
    <edge id=":node_00x12_0" function="internal">
        <lane id=":node_00x12_0_0" index="0" disallow="tram rail_urban rail rail_electric ship" speed="13.89" length="5.57" shape="33.91,1586.43 33.13,1585.00 32.28,1584.16 31.50,1583.31 30.94,1581.82"/>
    </edge>
    <edge id=":node_00x12_1" function="internal">
        <lane id=":node_00x12_1_0" index="0" disallow="tram rail_urban rail rail_electric ship" speed="13.89" length="21.77" shape="33.91,1586.43 31.98,1579.25 32.73,1575.88 36.16,1576.30 42.28,1580.52"/>
    </edge>
    <edge id=":node_00x12_2" function="internal">
        <lane id=":node_00x12_2_0" index="0" disallow="tram rail_urban rail rail_electric ship" speed="13.89" length="8.25" shape="40.19,1583.07 37.87,1581.47 36.57,1581.31 36.28,1582.59 37.01,1585.31"/>
    </edge>
    <edge id=":node_00x12_3" function="internal">
        <lane id=":node_00x12_3_0" index="0" disallow="tram rail_urban rail rail_electric ship" speed="13.89" length="9.33" shape="40.19,1583.07 30.94,1581.82"/>
    </edge>
    <edge id=":node_00x12_4" function="internal">
        <lane id=":node_00x12_4_0" index="0" disallow="tram rail_urban rail rail_electric ship" speed="13.89" length="9.22" shape="34.18,1581.18 35.33,1582.39 37.35,1581.38 39.80,1580.09 42.28,1580.52"/>
    </edge>
    <edge id=":node_00x12_5" function="internal">
        <lane id=":node_00x12_5_0" index="0" disallow="tram rail_urban rail rail_electric ship" speed="13.89" length="5.10" shape="34.18,1581.18 34.71,1582.53 35.46,1583.28 36.28,1584.01 37.01,1585.31"/>
    </edge>
    <edge id=":node_00x13_0" function="internal">
        <lane id=":node_00x13_0_0" index="0" disallow="tram rail_urban rail rail_electric ship" speed="13.89" length="4.50" shape="68.90,1682.18 68.23,1681.03 67.80,1680.22 67.44,1679.38 66.98,1678.13"/>
    </edge>
    <edge id=":node_00x13_1" function="internal">
        <lane id=":node_00x13_1_0" index="0" disallow="tram rail_urban rail rail_electric ship" speed="13.89" length="30.15" shape="68.90,1682.18 63.37,1672.35 61.99,1668.71 64.78,1671.27 71.73,1680.04"/>
    </edge>
    <edge id=":node_00x13_2" function="internal">
        <lane id=":node_00x13_2_0" index="0" disallow="tram rail_urban rail rail_electric ship" speed="13.89" length="4.47" shape="69.10,1682.03 68.31,1680.97 67.82,1680.20 67.44,1679.37 66.98,1678.13"/>
    </edge>
    <edge id=":node_00x13_3" function="internal">
        <lane id=":node_00x13_3_0" index="0" disallow="tram rail_urban rail rail_electric ship" speed="13.89" length="26.13" shape="69.10,1682.03 75.12,1689.63 77.54,1691.85 76.35,1688.70 71.55,1680.18"/>
    </edge>
    <edge id=":node_00x13_4" function="internal">
        <lane id=":node_00x13_4_0" index="0" disallow="tram rail_urban rail rail_electric ship" speed="13.89" length="3.47" shape="70.08,1677.01 70.44,1677.98 70.74,1678.62 71.12,1679.22 71.73,1680.04"/>
    </edge>
    <edge id=":node_00x13_5" function="internal">
        <lane id=":node_00x13_5_0" index="0" disallow="tram rail_urban rail rail_electric ship" speed="13.89" length="3.50" shape="70.08,1677.01 70.44,1677.99 70.71,1678.65 71.03,1679.28 71.55,1680.18"/>
    </edge>
    <edge id=":node_00x14_0" function="internal">
        <lane id=":node_00x14_0_0" index="0" disallow="tram rail_urban rail rail_electric ship" speed="13.89" length="8.36" shape="124.19,1791.45 129.39,1784.90"/>
    </edge>
    <edge id=":node_00x14_1" function="internal">
        <lane id=":node_00x14_1_0" index="0" disallow="tram rail_urban rail rail_electric ship" speed="13.89" length="35.05" shape="124.19,1791.45 122.58,1778.88 123.64,1774.15 127.38,1777.25 133.79,1788.18"/>
    </edge>
    <edge id=":node_00x14_2" function="internal">
        <lane id=":node_00x14_2_0" index="0" disallow="tram rail_urban rail rail_electric ship" speed="13.89" length="12.50" shape="130.86,1789.70 128.58,1785.81 127.24,1784.70 126.87,1786.39 127.44,1790.87"/>
    </edge>
    <edge id=":node_00x14_3" function="internal">
        <lane id=":node_00x14_3_0" index="0" disallow="tram rail_urban rail rail_electric ship" speed="13.89" length="5.06" shape="130.86,1789.70 130.32,1788.32 130.17,1787.28 129.99,1786.25 129.39,1784.90"/>
    </edge>
    <edge id=":node_00x14_4" function="internal">
        <lane id=":node_00x14_4_0" index="0" disallow="tram rail_urban rail rail_electric ship" speed="13.89" length="5.22" shape="132.23,1783.23 132.86,1784.62 133.05,1785.68 133.22,1786.75 133.79,1788.18"/>
    </edge>
    <edge id=":node_00x14_5" function="internal">
        <lane id=":node_00x14_5_0" index="0" disallow="tram rail_urban rail rail_electric ship" speed="13.89" length="9.92" shape="132.23,1783.23 132.34,1785.44 130.40,1786.84 128.18,1788.35 127.44,1790.87"/>
    </edge>
    <edge id=":node_00x15_0" function="internal">
        <lane id=":node_00x15_0_0" index="0" disallow="tram rail_urban rail rail_electric ship" speed="13.89" length="10.36" shape="142.71,1894.28 140.75,1884.11"/>
    </edge>
    <edge id=":node_00x15_1" function="internal">
        <lane id=":node_00x15_1_0" index="0" disallow="tram rail_urban rail rail_electric ship" speed="13.89" length="13.16" shape="142.71,1894.28 142.47,1890.38 143.60,1887.96 146.09,1887.00 149.96,1887.52"/>
    </edge>
    <edge id=":node_00x15_2" function="internal">
        <lane id=":node_00x15_2_0" index="0" disallow="tram rail_urban rail rail_electric ship" speed="13.89" length="5.70" shape="149.09,1890.70 147.41,1890.48 146.33,1890.89 145.84,1891.94 145.95,1893.63"/>
    </edge>
    <edge id=":node_00x15_3" function="internal">
        <lane id=":node_00x15_3_0" index="0" disallow="tram rail_urban rail rail_electric ship" speed="13.89" length="11.18" shape="149.09,1890.70 145.75,1889.51 143.24,1888.02 141.57,1886.22 140.75,1884.11"/>
    </edge>
    <edge id=":node_00x15_4" function="internal">
        <lane id=":node_00x15_4_0" index="0" disallow="tram rail_urban rail rail_electric ship" speed="13.89" length="7.49" shape="144.00,1883.53 144.54,1884.71 145.71,1885.76 147.52,1886.70 149.96,1887.52"/>
    </edge>
    <edge id=":node_00x15_5" function="internal">
        <lane id=":node_00x15_5_0" index="0" disallow="tram rail_urban rail rail_electric ship" speed="13.89" length="10.29" shape="144.00,1883.53 145.95,1893.63"/>
    </edge>
    <edge id=":node_00x16_0" function="internal">
        <lane id=":node_00x16_0_0" index="0" disallow="tram rail_urban rail rail_electric ship" speed="13.89" length="11.56" shape="167.24,2012.67 164.25,2001.50"/>
    </edge>
    <edge id=":node_00x16_1" function="internal">
        <lane id=":node_00x16_1_0" index="0" disallow="tram rail_urban rail rail_electric ship" speed="13.89" length="14.96" shape="167.24,2012.67 166.48,2008.10 167.47,2005.43 170.21,2004.68 174.70,2005.83"/>
    </edge>
    <edge id=":node_00x16_2" function="internal">
        <lane id=":node_00x16_2_0" index="0" disallow="tram rail_urban rail rail_electric ship" speed="13.89" length="6.19" shape="173.49,2008.90 171.63,2008.43 170.50,2008.74 170.09,2009.84 170.40,2011.74"/>
    </edge>
    <edge id=":node_00x16_3" function="internal">
        <lane id=":node_00x16_3_0" index="0" disallow="tram rail_urban rail rail_electric ship" speed="13.89" length="12.25" shape="173.49,2008.90 169.76,2007.20 166.97,2005.40 165.14,2003.50 164.25,2001.50"/>
    </edge>
    <edge id=":node_00x16_4" function="internal">
        <lane id=":node_00x16_4_0" index="0" disallow="tram rail_urban rail rail_electric ship" speed="13.89" length="9.00" shape="167.49,2000.85 168.11,2002.04 169.52,2003.26 171.72,2004.53 174.70,2005.83"/>
    </edge>
    <edge id=":node_00x16_5" function="internal">
        <lane id=":node_00x16_5_0" index="0" disallow="tram rail_urban rail rail_electric ship" speed="13.89" length="11.27" shape="167.49,2000.85 170.40,2011.74"/>
    </edge>
    <edge id=":node_00x17_0" function="internal">
        <lane id=":node_00x17_0_0" index="0" disallow="tram rail_urban rail rail_electric ship" speed="13.89" length="13.22" shape="200.11,2120.32 195.38,2107.97"/>
    </edge>
    <edge id=":node_00x17_1" function="internal">
        <lane id=":node_00x17_1_0" index="0" disallow="tram rail_urban rail rail_electric ship" speed="13.89" length="17.57" shape="200.11,2120.32 198.51,2114.84 199.23,2111.85 202.26,2111.36 207.61,2113.36"/>
    </edge>
    <edge id=":node_00x17_2" function="internal">
        <lane id=":node_00x17_2_0" index="0" disallow="tram rail_urban rail rail_electric ship" speed="13.89" length="6.96" shape="206.13,2116.31 204.02,2115.52 202.82,2115.72 202.53,2116.90 203.17,2119.07"/>
    </edge>
    <edge id=":node_00x17_3" function="internal">
        <lane id=":node_00x17_3_0" index="0" disallow="tram rail_urban rail rail_electric ship" speed="13.89" length="13.85" shape="206.13,2116.31 201.82,2113.97 198.58,2111.80 196.44,2109.80 195.38,2107.97"/>
    </edge>
    <edge id=":node_00x17_4" function="internal">
        <lane id=":node_00x17_4_0" index="0" disallow="tram rail_urban rail rail_electric ship" speed="13.89" length="11.19" shape="198.55,2107.04 199.35,2108.22 201.12,2109.67 203.88,2111.39 207.61,2113.36"/>
    </edge>
    <edge id=":node_00x17_5" function="internal">
        <lane id=":node_00x17_5_0" index="0" disallow="tram rail_urban rail rail_electric ship" speed="13.89" length="12.89" shape="198.55,2107.04 203.17,2119.07"/>
    </edge>
    <edge id=":node_00x18_0" function="internal">
        <lane id=":node_00x18_0_0" index="0" disallow="tram rail_urban rail rail_electric ship" speed="13.89" length="5.44" shape="240.91,2215.36 239.95,2214.09 239.04,2213.38 238.19,2212.65 237.40,2211.29"/>
    </edge>
    <edge id=":node_00x18_1" function="internal">
        <lane id=":node_00x18_1_0" index="0" disallow="tram rail_urban rail rail_electric ship" speed="13.89" length="22.35" shape="240.91,2215.36 237.70,2208.41 237.86,2204.89 241.37,2204.83 248.24,2208.22"/>
    </edge>
    <edge id=":node_00x18_2" function="internal">
        <lane id=":node_00x18_2_0" index="0" disallow="tram rail_urban rail rail_electric ship" speed="13.89" length="8.43" shape="246.55,2211.05 243.96,2209.77 242.63,2209.80 242.58,2211.12 243.78,2213.74"/>
    </edge>
    <edge id=":node_00x18_3" function="internal">
        <lane id=":node_00x18_3_0" index="0" disallow="tram rail_urban rail rail_electric ship" speed="13.89" length="9.15" shape="246.55,2211.05 237.40,2211.29"/>
    </edge>
    <edge id=":node_00x18_4" function="internal">
        <lane id=":node_00x18_4_0" index="0" disallow="tram rail_urban rail rail_electric ship" speed="13.89" length="9.04" shape="240.45,2210.04 241.83,2211.03 243.63,2209.75 245.79,2208.16 248.24,2208.22"/>
    </edge>
    <edge id=":node_00x18_5" function="internal">
        <lane id=":node_00x18_5_0" index="0" disallow="tram rail_urban rail rail_electric ship" speed="13.89" length="5.05" shape="240.45,2210.04 241.20,2211.28 242.02,2211.94 242.88,2212.57 243.78,2213.74"/>
    </edge>
    <edge id=":node_00x19_0" function="internal">
        <lane id=":node_00x19_0_0" index="0" disallow="tram rail_urban rail rail_electric ship" speed="13.89" length="6.47" shape="292.08,2298.80 290.60,2297.76 289.11,2297.64 287.68,2297.47 286.43,2296.28"/>