<?xml version='1.0' encoding='UTF-8'?>
<nodes xmlns:xsi="http://www.w3.org/2001/XMLSchema-instance" version="0.27" xsi:noNamespaceSchemaLocation="http://sumo.dlr.de/xsd/nodes_file.xsd">
    <location convBoundary="0.00,0.00,2000.00,2000.00" netOffset="-224973.31,-2700122.99" origBoundary="54.286966,24.391306,54.609531,24.591038" projParameter="+proj=utm +zone=40 +ellps=WGS84 +datum=WGS84 +units=m +no_defs" />

    <node avg_slowdown_ratio="0.254139668827" id="node_00x00" type="right_before_left" weight_num="2.0" weight_sum="0.508279337653" x="0.00" y="0.00" />
    <node avg_slowdown_ratio="0.251979841613" id="node_00x01" type="right_before_left" weight_num="3.0" weight_sum="0.755939524838" x="0.00" y="100.00" />
    <node avg_slowdown_ratio="0.249100071994" id="node_00x02" type="right_before_left" weight_num="3.0" weight_sum="0.747300215983" x="0.00" y="200.00" />
    <node avg_slowdown_ratio="0.252459803216" id="node_00x03" type="right_before_left" weight_num="3.0" weight_sum="0.757379409647" x="0.00" y="300.00" />
    <node avg_slowdown_ratio="0.252459803216" id="node_00x04" type="right_before_left" weight_num="3.0" weight_sum="0.757379409647" x="0.00" y="400.00" />
    <node avg_slowdown_ratio="0.245260379169" id="node_00x05" type="right_before_left" weight_num="3.0" weight_sum="0.735781137508" x="0.00" y="500.00" />
    <node avg_slowdown_ratio="0.250539956803" id="node_00x06" type="right_before_left" weight_num="3.0" weight_sum="0.75161987041" x="0.00" y="600.00" />
    <node avg_slowdown_ratio="0.245020398368" id="node_00x07" type="right_before_left" weight_num="3.0" weight_sum="0.735061195104" x="0.00" y="700.00" />
    <node avg_slowdown_ratio="0.248140148788" id="node_00x08" type="right_before_left" weight_num="3.0" weight_sum="0.744420446365" x="0.00" y="800.00" />
    <node avg_slowdown_ratio="0.249820014399" id="node_00x09" type="right_before_left" weight_num="3.0" weight_sum="0.749460043197" x="0.00" y="900.00" />
    <node avg_slowdown_ratio="0.249820014399" id="node_00x10" type="right_before_left" weight_num="3.0" weight_sum="0.749460043197" x="0.00" y="1000.00" />
    <node avg_slowdown_ratio="0.238540916727" id="node_00x11" type="right_before_left" weight_num="3.0" weight_sum="0.715622750181" x="0.00" y="1100.00" />
    <node avg_slowdown_ratio="0.247900167987" id="node_00x12" type="right_before_left" weight_num="3.0" weight_sum="0.74370050396" x="0.00" y="1200.00" />
    <node avg_slowdown_ratio="0.241180705543" id="node_00x13" type="right_before_left" weight_num="3.0" weight_sum="0.72354211663" x="0.00" y="1300.00" />
    <node avg_slowdown_ratio="0.24838012959" id="node_00x14" type="right_before_left" weight_num="3.0" weight_sum="0.745140388769" x="0.00" y="1400.00" />
    <node avg_slowdown_ratio="0.245020398368" id="node_00x15" type="right_before_left" weight_num="3.0" weight_sum="0.735061195104" x="0.00" y="1500.00" />
    <node avg_slowdown_ratio="0.263018958483" id="node_00x16" type="right_before_left" weight_num="3.0" weight_sum="0.789056875449" x="0.00" y="1600.00" />
    <node avg_slowdown_ratio="0.237580993521" id="node_00x17" type="right_before_left" weight_num="3.0" weight_sum="0.712742980562" x="0.00" y="1700.00" />
    <node avg_slowdown_ratio="0.241900647948" id="node_00x18" type="right_before_left" weight_num="3.0" weight_sum="0.725701943845" x="0.00" y="1800.00" />
    <node avg_slowdown_ratio="0.25941924646" id="node_00x19" type="right_before_left" weight_num="3.0" weight_sum="0.77825773938" x="0.00" y="1900.00" />
    <node avg_slowdown_ratio="0.26241900648" id="node_00x20" type="right_before_left" weight_num="2.0" weight_sum="0.524838012959" x="0.00" y="2000.00" />
    <node avg_slowdown_ratio="0.254859611231" id="node_01x00" type="right_before_left" weight_num="3.0" weight_sum="0.764578833693" x="100.00" y="0.00" />
    <node avg_slowdown_ratio="0.245500359971" id="node_01x01" type="right_before_left" weight_num="4.0" weight_sum="0.982001439885" x="100.00" y="100.00" />
    <node avg_slowdown_ratio="0.252339812815" id="node_01x02" type="right_before_left" weight_num="4.0" weight_sum="1.00935925126" x="100.00" y="200.00" />
    <node avg_slowdown_ratio="0.277357811375" id="node_01x03" type="right_before_left" weight_num="4.0" weight_sum="1.1094312455" x="100.00" y="300.00" />
    <node avg_slowdown_ratio="0.266558675305" id="node_01x04" type="right_before_left" weight_num="4.0" weight_sum="1.06623470122" x="100.00" y="400.00" />
    <node avg_slowdown_ratio="0.253599712022" id="node_01x05" type="right_before_left" weight_num="4.0" weight_sum="1.01439884809" x="100.00" y="500.00" />
    <node avg_slowdown_ratio="0.270698344132" id="node_01x06" type="right_before_left" weight_num="4.0" weight_sum="1.08279337653" x="100.00" y="600.00" />
    <node avg_slowdown_ratio="0.254139668827" id="node_01x07" type="right_before_left" weight_num="4.0" weight_sum="1.01655867531" x="100.00" y="700.00" />
    <node avg_slowdown_ratio="0.26871850252" id="node_01x08" type="right_before_left" weight_num="4.0" weight_sum="1.07487401008" x="100.00" y="800.00" />
    <node avg_slowdown_ratio="0.272858171345" id="node_01x09" type="right_before_left" weight_num="4.0" weight_sum="1.09143268538" x="100.00" y="900.00" />
    <node avg_slowdown_ratio="0.277357811375" id="node_01x10" type="right_before_left" weight_num="4.0" weight_sum="1.1094312455" x="100.00" y="1000.00" />
    <node avg_slowdown_ratio="0.270878329735" id="node_01x11" type="right_before_left" weight_num="4.0" weight_sum="1.08351331894" x="100.00" y="1100.00" />
    <node avg_slowdown_ratio="0.27339812815" id="node_01x12" type="right_before_left" weight_num="4.0" weight_sum="1.0935925126" x="100.00" y="1200.00" />
    <node avg_slowdown_ratio="0.284917206622" id="node_01x13" type="right_before_left" weight_num="4.0" weight_sum="1.13966882649" x="100.00" y="1300.00" />
    <node avg_slowdown_ratio="0.265118790497" id="node_01x14" type="right_before_left" weight_num="4.0" weight_sum="1.06047516199" x="100.00" y="1400.00" />
    <node avg_slowdown_ratio="0.26241900648" id="node_01x15" type="right_before_left" weight_num="4.0" weight_sum="1.04967602592" x="100.00" y="1500.00" />
    <node avg_slowdown_ratio="0.264938804895" id="node_01x16" type="right_before_left" weight_num="4.0" weight_sum="1.05975521958" x="100.00" y="1600.00" />
    <node avg_slowdown_ratio="0.26421886249" id="node_01x17" type="right_before_left" weight_num="4.0" weight_sum="1.05687544996" x="100.00" y="1700.00" />
    <node avg_slowdown_ratio="0.26097912167" id="node_01x18" type="right_before_left" weight_num="4.0" weight_sum="1.04391648668" x="100.00" y="1800.00" />
    <node avg_slowdown_ratio="0.267818574515" id="node_01x19" type="right_before_left" weight_num="4.0" weight_sum="1.07127429806" x="100.00" y="1900.00" />
    <node avg_slowdown_ratio="0.25629949604" id="node_01x20" type="right_before_left" weight_num="3.0" weight_sum="0.76889848812" x="100.00" y="2000.00" />
    <node avg_slowdown_ratio="0.250779937605" id="node_02x00" type="right_before_left" weight_num="3.0" weight_sum="0.752339812815" x="200.00" y="0.00" />
    <node avg_slowdown_ratio="0.25611951044" id="node_02x01" type="right_before_left" weight_num="4.0" weight_sum="1.02447804176" x="200.00" y="100.00" />
    <node avg_slowdown_ratio="0.260619150468" id="node_02x02" type="right_before_left" weight_num="4.0" weight_sum="1.04247660187" x="200.00" y="200.00" />
    <node avg_slowdown_ratio="0.269978401727" id="node_02x03" type="right_before_left" weight_num="4.0" weight_sum="1.07991360691" x="200.00" y="300.00" />
    <node avg_slowdown_ratio="0.266378689705" id="node_02x04" type="right_before_left" weight_num="4.0" weight_sum="1.06551475882" x="200.00" y="400.00" />
    <node avg_slowdown_ratio="0.272318214542" id="node_02x05" type="right_before_left" weight_num="4.0" weight_sum="1.08927285817" x="200.00" y="500.00" />
    <node avg_slowdown_ratio="0.263678905688" id="node_02x06" type="right_before_left" weight_num="4.0" weight_sum="1.05471562275" x="200.00" y="600.00" />
    <node avg_slowdown_ratio="0.278617710583" id="node_02x07" type="right_before_left" weight_num="4.0" weight_sum="1.11447084233" x="200.00" y="700.00" />
    <node avg_slowdown_ratio="0.27195824334" id="node_02x08" type="right_before_left" weight_num="4.0" weight_sum="1.08783297336" x="200.00" y="800.00" />
    <node avg_slowdown_ratio="0.287257019437" id="node_02x09" type="right_before_left" weight_num="4.0" weight_sum="1.14902807775" x="200.00" y="900.00" />
    <node avg_slowdown_ratio="0.28743700504" id="node_02x10" type="right_before_left" weight_num="4.0" weight_sum="1.14974802016" x="200.00" y="1000.00" />
    <node avg_slowdown_ratio="0.30003599712" id="node_02x11" type="right_before_left" weight_num="4.0" weight_sum="1.20014398848" x="200.00" y="1100.00" />
    <node avg_slowdown_ratio="0.287077033837" id="node_02x12" type="right_before_left" weight_num="4.0" weight_sum="1.14830813535" x="200.00" y="1200.00" />
    <node avg_slowdown_ratio="0.28599712023" id="node_02x13" type="right_before_left" weight_num="4.0" weight_sum="1.14398848092" x="200.00" y="1300.00" />
    <node avg_slowdown_ratio="0.281857451405" id="node_02x14" type="right_before_left" weight_num="4.0" weight_sum="1.12742980562" x="200.00" y="1400.00" />
    <node avg_slowdown_ratio="0.26709863211" id="node_02x15" type="right_before_left" weight_num="4.0" weight_sum="1.06839452844" x="200.00" y="1500.00" />
    <node avg_slowdown_ratio="0.271418286537" id="node_02x16" type="right_before_left" weight_num="4.0" weight_sum="1.08567314615" x="200.00" y="1600.00" />
    <node avg_slowdown_ratio="0.260079193665" id="node_02x17" type="right_before_left" weight_num="4.0" weight_sum="1.04031677466" x="200.00" y="1700.00" />
    <node avg_slowdown_ratio="0.272498200145" id="node_02x18" type="right_before_left" weight_num="4.0" weight_sum="1.08999280058" x="200.00" y="1800.00" />
    <node avg_slowdown_ratio="0.256479481643" id="node_02x19" type="right_before_left" weight_num="4.0" weight_sum="1.02591792657" x="200.00" y="1900.00" />
    <node avg_slowdown_ratio="0.242860571154" id="node_02x20" type="right_before_left" weight_num="3.0" weight_sum="0.728581713463" x="200.00" y="2000.00" />
    <node avg_slowdown_ratio="0.247420206384" id="node_03x00" type="right_before_left" weight_num="3.0" weight_sum="0.742260619151" x="300.00" y="0.00" />
    <node avg_slowdown_ratio="0.23758099352" id="node_03x01" type="right_before_left" weight_num="4.0" weight_sum="0.950323974082" x="300.00" y="100.00" />
    <node avg_slowdown_ratio="0.269618430525" id="node_03x02" type="right_before_left" weight_num="4.0" weight_sum="1.0784737221" x="300.00" y="200.00" />
    <node avg_slowdown_ratio="0.281857451405" id="node_03x03" type="right_before_left" weight_num="4.0" weight_sum="1.12742980562" x="300.00" y="300.00" />
    <node avg_slowdown_ratio="0.288876889847" id="node_03x04" type="right_before_left" weight_num="4.0" weight_sum="1.15550755939" x="300.00" y="400.00" />
    <node avg_slowdown_ratio="0.287796976243" id="node_03x05" type="right_before_left" weight_num="4.0" weight_sum="1.15118790497" x="300.00" y="500.00" />
    <node avg_slowdown_ratio="0.29535637149" id="node_03x06" type="right_before_left" weight_num="4.0" weight_sum="1.18142548596" x="300.00" y="600.00" />
    <node avg_slowdown_ratio="0.295716342693" id="node_03x07" type="right_before_left" weight_num="4.0" weight_sum="1.18286537077" x="300.00" y="700.00" />
    <node avg_slowdown_ratio="0.301115910727" id="node_03x08" type="right_before_left" weight_num="4.0" weight_sum="1.20446364291" x="300.00" y="800.00" />
    <node avg_slowdown_ratio="0.294096472283" id="node_03x09" type="right_before_left" weight_num="4.0" weight_sum="1.17638588913" x="300.00" y="900.00" />
    <node avg_slowdown_ratio="0.318034557235" id="node_03x10" type="right_before_left" weight_num="4.0" weight_sum="1.27213822894" x="300.00" y="1000.00" />
    <node avg_slowdown_ratio="0.302735781137" id="node_03x11" type="right_before_left" weight_num="4.0" weight_sum="1.21094312455" x="300.00" y="1100.00" />
    <node avg_slowdown_ratio="0.295536357092" id="node_03x12" type="right_before_left" weight_num="4.0" weight_sum="1.18214542837" x="300.00" y="1200.00" />
    <node avg_slowdown_ratio="0.29355651548" id="node_03x13" type="right_before_left" weight_num="4.0" weight_sum="1.17422606192" x="300.00" y="1300.00" />
    <node avg_slowdown_ratio="0.29391648668" id="node_03x14" type="right_before_left" weight_num="4.0" weight_sum="1.17566594672" x="300.00" y="1400.00" />
    <node avg_slowdown_ratio="0.28581713463" id="node_03x15" type="right_before_left" weight_num="4.0" weight_sum="1.14326853852" x="300.00" y="1500.00" />
    <node avg_slowdown_ratio="0.294996400288" id="node_03x16" type="right_before_left" weight_num="4.0" weight_sum="1.17998560115" x="300.00" y="1600.00" />
    <node avg_slowdown_ratio="0.287257019437" id="node_03x17" type="right_before_left" weight_num="4.0" weight_sum="1.14902807775" x="300.00" y="1700.00" />
    <node avg_slowdown_ratio="0.275917926565" id="node_03x18" type="right_before_left" weight_num="4.0" weight_sum="1.10367170626" x="300.00" y="1800.00" />
    <node avg_slowdown_ratio="0.258639308855" id="node_03x19" type="right_before_left" weight_num="4.0" weight_sum="1.03455723542" x="300.00" y="1900.00" />
    <node avg_slowdown_ratio="0.248620110391" id="node_03x20" type="right_before_left" weight_num="3.0" weight_sum="0.745860331173" x="300.00" y="2000.00" />
    <node avg_slowdown_ratio="0.232541396688" id="node_04x00" type="right_before_left" weight_num="3.0" weight_sum="0.697624190065" x="400.00" y="0.00" />
    <node avg_slowdown_ratio="0.26259899208" id="node_04x01" type="right_before_left" weight_num="4.0" weight_sum="1.05039596832" x="400.00" y="100.00" />
    <node avg_slowdown_ratio="0.272498200145" id="node_04x02" type="right_before_left" weight_num="4.0" weight_sum="1.08999280058" x="400.00" y="200.00" />
    <node avg_slowdown_ratio="0.277357811375" id="node_04x03" type="right_before_left" weight_num="4.0" weight_sum="1.1094312455" x="400.00" y="300.00" />
    <node avg_slowdown_ratio="0.302735781137" id="node_04x04" type="right_before_left" weight_num="4.0" weight_sum="1.21094312455" x="400.00" y="400.00" />
    <node avg_slowdown_ratio="0.287257019437" id="node_04x05" type="right_before_left" weight_num="4.0" weight_sum="1.14902807775" x="400.00" y="500.00" />
    <node avg_slowdown_ratio="0.29841612671" id="node_04x06" type="right_before_left" weight_num="4.0" weight_sum="1.19366450684" x="400.00" y="600.00" />
    <node avg_slowdown_ratio="0.306515478763" id="node_04x07" type="right_before_left" weight_num="4.0" weight_sum="1.22606191505" x="400.00" y="700.00" />
    <node avg_slowdown_ratio="0.313534917207" id="node_04x08" type="right_before_left" weight_num="4.0" weight_sum="1.25413966883" x="400.00" y="800.00" />
    <node avg_slowdown_ratio="0.305975521957" id="node_04x09" type="right_before_left" weight_num="4.0" weight_sum="1.22390208783" x="400.00" y="900.00" />
    <node avg_slowdown_ratio="0.31857451404" id="node_04x10" type="right_before_left" weight_num="4.0" weight_sum="1.27429805616" x="400.00" y="1000.00" />
    <node avg_slowdown_ratio="0.311195104392" id="node_04x11" type="right_before_left" weight_num="4.0" weight_sum="1.24478041757" x="400.00" y="1100.00" />
    <node avg_slowdown_ratio="0.303455723542" id="node_04x12" type="right_before_left" weight_num="4.0" weight_sum="1.21382289417" x="400.00" y="1200.00" />
    <node avg_slowdown_ratio="0.297156227502" id="node_04x13" type="right_before_left" weight_num="4.0" weight_sum="1.18862491001" x="400.00" y="1300.00" />
    <node avg_slowdown_ratio="0.316594672428" id="node_04x14" type="right_before_left" weight_num="4.0" weight_sum="1.26637868971" x="400.00" y="1400.00" />
    <node avg_slowdown_ratio="0.284917206622" id="node_04x15" type="right_before_left" weight_num="4.0" weight_sum="1.13966882649" x="400.00" y="1500.00" />
    <node avg_slowdown_ratio="0.28743700504" id="node_04x16" type="right_before_left" weight_num="4.0" weight_sum="1.14974802016" x="400.00" y="1600.00" />
    <node avg_slowdown_ratio="0.286897048235" id="node_04x17" type="right_before_left" weight_num="4.0" weight_sum="1.14758819294" x="400.00" y="1700.00" />
    <node avg_slowdown_ratio="0.293376529878" id="node_04x18" type="right_before_left" weight_num="4.0" weight_sum="1.17350611951" x="400.00" y="1800.00" />
    <node avg_slowdown_ratio="0.275377969763" id="node_04x19" type="right_before_left" weight_num="4.0" weight_sum="1.10151187905" x="400.00" y="1900.00" />
    <node avg_slowdown_ratio="0.241420686345" id="node_04x20" type="right_before_left" weight_num="3.0" weight_sum="0.724262059035" x="400.00" y="2000.00" />
    <node avg_slowdown_ratio="0.257979361651" id="node_05x00" type="right_before_left" weight_num="3.0" weight_sum="0.773938084953" x="500.00" y="0.00" />
    <node avg_slowdown_ratio="0.283657307415" id="node_05x01" type="right_before_left" weight_num="4.0" weight_sum="1.13462922966" x="500.00" y="100.00" />
    <node avg_slowdown_ratio="0.264938804895" id="node_05x02" type="right_before_left" weight_num="4.0" weight_sum="1.05975521958" x="500.00" y="200.00" />
    <node avg_slowdown_ratio="0.292836573075" id="node_05x03" type="right_before_left" weight_num="4.0" weight_sum="1.1713462923" x="500.00" y="300.00" />
    <node avg_slowdown_ratio="0.29553635709" id="node_05x04" type="right_before_left" weight_num="4.0" weight_sum="1.18214542836" x="500.00" y="400.00" />
    <node avg_slowdown_ratio="0.302735781137" id="node_05x05" type="right_before_left" weight_num="4.0" weight_sum="1.21094312455" x="500.00" y="500.00" />
    <node avg_slowdown_ratio="0.32343412527" id="node_05x06" type="right_before_left" weight_num="4.0" weight_sum="1.29373650108" x="500.00" y="600.00" />
    <node avg_slowdown_ratio="0.321634269257" id="node_05x07" type="right_before_left" weight_num="4.0" weight_sum="1.28653707703" x="500.00" y="700.00" />
    <node avg_slowdown_ratio="0.311735061195" id="node_05x08" type="right_before_left" weight_num="4.0" weight_sum="1.24694024478" x="500.00" y="800.00" />
    <node avg_slowdown_ratio="0.334233261337" id="node_05x09" type="right_before_left" weight_num="4.0" weight_sum="1.33693304535" x="500.00" y="900.00" />
    <node avg_slowdown_ratio="0.328653707703" id="node_05x10" type="right_before_left" weight_num="4.0" weight_sum="1.31461483081" x="500.00" y="1000.00" />
    <node avg_slowdown_ratio="0.300755939525" id="node_05x11" type="right_before_left" weight_num="4.0" weight_sum="1.2030237581" x="500.00" y="1100.00" />
    <node avg_slowdown_ratio="0.302915766737" id="node_05x12" type="right_before_left" weight_num="4.0" weight_sum="1.21166306695" x="500.00" y="1200.00" />
    <node avg_slowdown_ratio="0.32487401008" id="node_05x13" type="right_before_left" weight_num="4.0" weight_sum="1.29949604032" x="500.00" y="1300.00" />
    <node avg_slowdown_ratio="0.316414686825" id="node_05x14" type="right_before_left" weight_num="4.0" weight_sum="1.2656587473" x="500.00" y="1400.00" />
    <node avg_slowdown_ratio="0.296436285097" id="node_05x15" type="right_before_left" weight_num="4.0" weight_sum="1.18574514039" x="500.00" y="1500.00" />
    <node avg_slowdown_ratio="0.297156227502" id="node_05x16" type="right_before_left" weight_num="4.0" weight_sum="1.18862491001" x="500.00" y="1600.00" />
    <node avg_slowdown_ratio="0.2969762419" id="node_05x17" type="right_before_left" weight_num="4.0" weight_sum="1.1879049676" x="500.00" y="1700.00" />
    <node avg_slowdown_ratio="0.282577393808" id="node_05x18" type="right_before_left" weight_num="4.0" weight_sum="1.13030957523" x="500.00" y="1800.00" />
    <node avg_slowdown_ratio="0.26871850252" id="node_05x19" type="right_before_left" weight_num="4.0" weight_sum="1.07487401008" x="500.00" y="1900.00" />
    <node avg_slowdown_ratio="0.24214062875" id="node_05x20" type="right_before_left" weight_num="3.0" weight_sum="0.726421886249" x="500.00" y="2000.00" />
    <node avg_slowdown_ratio="0.25149988001" id="node_06x00" type="right_before_left" weight_num="3.0" weight_sum="0.754499640029" x="600.00" y="0.00" />
    <node avg_slowdown_ratio="0.277177825775" id="node_06x01" type="right_before_left" weight_num="4.0" weight_sum="1.1087113031" x="600.00" y="100.00" />
    <node avg_slowdown_ratio="0.26871850252" id="node_06x02" type="right_before_left" weight_num="4.0" weight_sum="1.07487401008" x="600.00" y="200.00" />
    <node avg_slowdown_ratio="0.290316774657" id="node_06x03" type="right_before_left" weight_num="4.0" weight_sum="1.16126709863" x="600.00" y="300.00" />
    <node avg_slowdown_ratio="0.325773938085" id="node_06x04" type="right_before_left" weight_num="4.0" weight_sum="1.30309575234" x="600.00" y="400.00" />
    <node avg_slowdown_ratio="0.30309575234" id="node_06x05" type="right_before_left" weight_num="4.0" weight_sum="1.21238300936" x="600.00" y="500.00" />
    <node avg_slowdown_ratio="0.317494600432" id="node_06x06" type="right_before_left" weight_num="4.0" weight_sum="1.26997840173" x="600.00" y="600.00" />
    <node avg_slowdown_ratio="0.327573794097" id="node_06x07" type="right_before_left" weight_num="4.0" weight_sum="1.31029517639" x="600.00" y="700.00" />
    <node avg_slowdown_ratio="0.33603311735" id="node_06x08" type="right_before_left" weight_num="4.0" weight_sum="1.3441324694" x="600.00" y="800.00" />
    <node avg_slowdown_ratio="0.35133189345" id="node_06x09" type="right_before_left" weight_num="4.0" weight_sum="1.4053275738" x="600.00" y="900.00" />
    <node avg_slowdown_ratio="0.340892728583" id="node_06x10" type="right_before_left" weight_num="4.0" weight_sum="1.36357091433" x="600.00" y="1000.00" />
    <node avg_slowdown_ratio="0.350971922248" id="node_06x11" type="right_before_left" weight_num="4.0" weight_sum="1.40388768899" x="600.00" y="1100.00" />
    <node avg_slowdown_ratio="0.33909287257" id="node_06x12" type="right_before_left" weight_num="4.0" weight_sum="1.35637149028" x="600.00" y="1200.00" />
    <node avg_slowdown_ratio="0.339272858173" id="node_06x13" type="right_before_left" weight_num="4.0" weight_sum="1.35709143269" x="600.00" y="1300.00" />
    <node avg_slowdown_ratio="0.310655147588" id="node_06x14" type="right_before_left" weight_num="4.0" weight_sum="1.24262059035" x="600.00" y="1400.00" />
    <node avg_slowdown_ratio="0.305615550755" id="node_06x15" type="right_before_left" weight_num="4.0" weight_sum="1.22246220302" x="600.00" y="1500.00" />
    <node avg_slowdown_ratio="0.322714182865" id="node_06x16" type="right_before_left" weight_num="4.0" weight_sum="1.29085673146" x="600.00" y="1600.00" />
    <node avg_slowdown_ratio="0.291036717063" id="node_06x17" type="right_before_left" weight_num="4.0" weight_sum="1.16414686825" x="600.00" y="1700.00" />
    <node avg_slowdown_ratio="0.288336933045" id="node_06x18" type="right_before_left" weight_num="4.0" weight_sum="1.15334773218" x="600.00" y="1800.00" />
    <node avg_slowdown_ratio="0.272498200145" id="node_06x19" type="right_before_left" weight_num="4.0" weight_sum="1.08999280058" x="600.00" y="1900.00" />
    <node avg_slowdown_ratio="0.244300455963" id="node_06x20" type="right_before_left" weight_num="3.0" weight_sum="0.73290136789" x="600.00" y="2000.00" />
    <node avg_slowdown_ratio="0.251979841613" id="node_07x00" type="right_before_left" weight_num="3.0" weight_sum="0.755939524838" x="700.00" y="0.00" />
    <node avg_slowdown_ratio="0.284017278617" id="node_07x01" type="right_before_left" weight_num="4.0" weight_sum="1.13606911447" x="700.00" y="100.00" />
    <node avg_slowdown_ratio="0.275197984163" id="node_07x02" type="right_before_left" weight_num="4.0" weight_sum="1.10079193665" x="700.00" y="200.00" />
    <node avg_slowdown_ratio="0.283297336212" id="node_07x03" type="right_before_left" weight_num="4.0" weight_sum="1.13318934485" x="700.00" y="300.00" />
    <node avg_slowdown_ratio="0.30939524838" id="node_07x04" type="right_before_left" weight_num="4.0" weight_sum="1.23758099352" x="700.00" y="400.00" />
    <node avg_slowdown_ratio="0.318214542838" id="node_07x05" type="right_before_left" weight_num="4.0" weight_sum="1.27285817135" x="700.00" y="500.00" />
    <node avg_slowdown_ratio="0.331533477322" id="node_07x06" type="right_before_left" weight_num="4.0" weight_sum="1.32613390929" x="700.00" y="600.00" />
    <node avg_slowdown_ratio="0.338192944565" id="node_07x07" type="right_before_left" weight_num="4.0" weight_sum="1.35277177826" x="700.00" y="700.00" />
    <node avg_slowdown_ratio="0.327033837293" id="node_07x08" type="right_before_left" weight_num="4.0" weight_sum="1.30813534917" x="700.00" y="800.00" />
    <node avg_slowdown_ratio="0.339632829375" id="node_07x09" type="right_before_left" weight_num="4.0" weight_sum="1.3585313175" x="700.00" y="900.00" />
    <node avg_slowdown_ratio="0.361771058315" id="node_07x10" type="right_before_left" weight_num="4.0" weight_sum="1.44708423326" x="700.00" y="1000.00" />
    <node avg_slowdown_ratio="0.3437724982" id="node_07x11" type="right_before_left" weight_num="4.0" weight_sum="1.3750899928" x="700.00" y="1100.00" />
    <node avg_slowdown_ratio="0.334953203745" id="node_07x12" type="right_before_left" weight_num="4.0" weight_sum="1.33981281498" x="700.00" y="1200.00" />
    <node avg_slowdown_ratio="0.352591792658" id="node_07x13" type="right_before_left" weight_num="4.0" weight_sum="1.41036717063" x="700.00" y="1300.00" />
    <node avg_slowdown_ratio="0.317854571635" id="node_07x14" type="right_before_left" weight_num="4.0" weight_sum="1.27141828654" x="700.00" y="1400.00" />
    <node avg_slowdown_ratio="0.330093592512" id="node_07x15" type="right_before_left" weight_num="4.0" weight_sum="1.32037437005" x="700.00" y="1500.00" />
    <node avg_slowdown_ratio="0.312275017998" id="node_07x16" type="right_before_left" weight_num="4.0" weight_sum="1.24910007199" x="700.00" y="1600.00" />
    <node avg_slowdown_ratio="0.2967962563" id="node_07x17" type="right_before_left" weight_num="4.0" weight_sum="1.1871850252" x="700.00" y="1700.00" />
    <node avg_slowdown_ratio="0.27645788337" id="node_07x18" type="right_before_left" weight_num="4.0" weight_sum="1.10583153348" x="700.00" y="1800.00" />
    <node avg_slowdown_ratio="0.27501799856" id="node_07x19" type="right_before_left" weight_num="4.0" weight_sum="1.10007199424" x="700.00" y="1900.00" />
    <node avg_slowdown_ratio="0.241900647948" id="node_07x20" type="right_before_left" weight_num="3.0" weight_sum="0.725701943844" x="700.00" y="2000.00" />
    <node avg_slowdown_ratio="0.247660187185" id="node_08x00" type="right_before_left" weight_num="3.0" weight_sum="0.742980561555" x="800.00" y="0.00" />
    <node avg_slowdown_ratio="0.295536357092" id="node_08x01" type="right_before_left" weight_num="4.0" weight_sum="1.18214542837" x="800.00" y="100.00" />
    <node avg_slowdown_ratio="0.278617710583" id="node_08x02" type="right_before_left" weight_num="4.0" weight_sum="1.11447084233" x="800.00" y="200.00" />
    <node avg_slowdown_ratio="0.297156227502" id="node_08x03" type="right_before_left" weight_num="4.0" weight_sum="1.18862491001" x="800.00" y="300.00" />
    <node avg_slowdown_ratio="0.317674586032" id="node_08x04" type="right_before_left" weight_num="4.0" weight_sum="1.27069834413" x="800.00" y="400.00" />
    <node avg_slowdown_ratio="0.33747300216" id="node_08x05" type="right_before_left" weight_num="4.0" weight_sum="1.34989200864" x="800.00" y="500.00" />
    <node avg_slowdown_ratio="0.339812814975" id="node_08x06" type="right_before_left" weight_num="4.0" weight_sum="1.3592512599" x="800.00" y="600.00" />
    <node avg_slowdown_ratio="0.325953923685" id="node_08x07" type="right_before_left" weight_num="4.0" weight_sum="1.30381569474" x="800.00" y="700.00" />
    <node avg_slowdown_ratio="0.325413966883" id="node_08x08" type="right_before_left" weight_num="4.0" weight_sum="1.30165586753" x="800.00" y="800.00" />
    <node avg_slowdown_ratio="0.355291576675" id="node_08x09" type="right_before_left" weight_num="4.0" weight_sum="1.4211663067" x="800.00" y="900.00" />
    <node avg_slowdown_ratio="0.36537077034" id="node_08x10" type="right_before_left" weight_num="4.0" weight_sum="1.46148308136" x="800.00" y="1000.00" />
    <node avg_slowdown_ratio="0.386249100073" id="node_08x11" type="right_before_left" weight_num="4.0" weight_sum="1.54499640029" x="800.00" y="1100.00" />
    <node avg_slowdown_ratio="0.346292296617" id="node_08x12" type="right_before_left" weight_num="4.0" weight_sum="1.38516918647" x="800.00" y="1200.00" />
    <node avg_slowdown_ratio="0.323254139667" id="node_08x13" type="right_before_left" weight_num="4.0" weight_sum="1.29301655867" x="800.00" y="1300.00" />
    <node avg_slowdown_ratio="0.341252699785" id="node_08x14" type="right_before_left" weight_num="4.0" weight_sum="1.36501079914" x="800.00" y="1400.00" />
    <node avg_slowdown_ratio="0.33135349172" id="node_08x15" type="right_before_left" weight_num="4.0" weight_sum="1.32541396688" x="800.00" y="1500.00" />
    <node avg_slowdown_ratio="0.310475161988" id="node_08x16" type="right_before_left" weight_num="4.0" weight_sum="1.24190064795" x="800.00" y="1600.00" />
    <node avg_slowdown_ratio="0.297336213103" id="node_08x17" type="right_before_left" weight_num="4.0" weight_sum="1.18934485241" x="800.00" y="1700.00" />
    <node avg_slowdown_ratio="0.28455723542" id="node_08x18" type="right_before_left" weight_num="4.0" weight_sum="1.13822894168" x="800.00" y="1800.00" />
    <node avg_slowdown_ratio="0.280057595393" id="node_08x19" type="right_before_left" weight_num="4.0" weight_sum="1.12023038157" x="800.00" y="1900.00" />