<?xml version='1.0' encoding='UTF-8'?>
<nodes xmlns:xsi="http://www.w3.org/2001/XMLSchema-instance" version="0.27" xsi:noNamespaceSchemaLocation="http://sumo.dlr.de/xsd/nodes_file.xsd">
    <location convBoundary="0.00,0.00,2000.00,2000.00" netOffset="-224973.31,-2700122.99" origBoundary="54.286966,24.391306,54.609531,24.591038" projParameter="+proj=utm +zone=40 +ellps=WGS84 +datum=WGS84 +units=m +no_defs" />

    <node avg_slowdown_ratio="0.0" id="node_00x00" type="priority" weight_num="2.0" weight_sum="0.0" x="0.00" y="0.00" />
    <node avg_slowdown_ratio="0.0" id="node_00x01" type="priority" weight_num="3.0" weight_sum="0.0" x="0.00" y="100.00" />
    <node avg_slowdown_ratio="0.0" id="node_00x02" type="priority" weight_num="3.0" weight_sum="0.0" x="0.00" y="200.00" />
    <node avg_slowdown_ratio="0.0" id="node_00x03" type="priority" weight_num="3.0" weight_sum="0.0" x="0.00" y="300.00" />
    <node avg_slowdown_ratio="0.0" id="node_00x04" type="priority" weight_num="3.0" weight_sum="0.0" x="0.00" y="400.00" />
    <node avg_slowdown_ratio="0.0" id="node_00x05" type="priority" weight_num="3.0" weight_sum="0.0" x="0.00" y="500.00" />
    <node avg_slowdown_ratio="0.0" id="node_00x06" type="priority" weight_num="3.0" weight_sum="0.0" x="0.00" y="600.00" />
    <node avg_slowdown_ratio="0.0" id="node_00x07" type="priority" weight_num="3.0" weight_sum="0.0" x="0.00" y="700.00" />
    <node avg_slowdown_ratio="0.0" id="node_00x08" type="priority" weight_num="3.0" weight_sum="0.0" x="0.00" y="800.00" />
    <node avg_slowdown_ratio="0.0" id="node_00x09" type="priority" weight_num="3.0" weight_sum="0.0" x="0.00" y="900.00" />
    <node avg_slowdown_ratio="0.0" id="node_00x10" type="priority" weight_num="3.0" weight_sum="0.0" x="0.00" y="1000.00" />
    <node avg_slowdown_ratio="0.0" id="node_00x11" type="priority" weight_num="3.0" weight_sum="0.0" x="0.00" y="1100.00" />
    <node avg_slowdown_ratio="0.0" id="node_00x12" type="priority" weight_num="3.0" weight_sum="0.0" x="0.00" y="1200.00" />
    <node avg_slowdown_ratio="0.0" id="node_00x13" type="priority" weight_num="3.0" weight_sum="0.0" x="0.00" y="1300.00" />
    <node avg_slowdown_ratio="0.0" id="node_00x14" type="priority" weight_num="3.0" weight_sum="0.0" x="0.00" y="1400.00" />
    <node avg_slowdown_ratio="0.0" id="node_00x15" type="priority" weight_num="3.0" weight_sum="0.0" x="0.00" y="1500.00" />
    <node avg_slowdown_ratio="0.0" id="node_00x16" type="priority" weight_num="3.0" weight_sum="0.0" x="0.00" y="1600.00" />
    <node avg_slowdown_ratio="0.0" id="node_00x17" type="priority" weight_num="3.0" weight_sum="0.0" x="0.00" y="1700.00" />
    <node avg_slowdown_ratio="0.0" id="node_00x18" type="priority" weight_num="3.0" weight_sum="0.0" x="0.00" y="1800.00" />
    <node avg_slowdown_ratio="0.0" id="node_00x19" type="priority" weight_num="3.0" weight_sum="0.0" x="0.00" y="1900.00" />
    <node avg_slowdown_ratio="0.0" id="node_00x20" type="priority" weight_num="2.0" weight_sum="0.0" x="0.00" y="2000.00" />
    <node avg_slowdown_ratio="0.0" id="node_01x00" type="priority" weight_num="3.0" weight_sum="0.0" x="100.00" y="0.00" />
    <node avg_slowdown_ratio="0.0" id="node_01x01" type="priority" weight_num="4.0" weight_sum="0.0" x="100.00" y="100.00" />
    <node avg_slowdown_ratio="0.0" id="node_01x02" type="priority" weight_num="4.0" weight_sum="0.0" x="100.00" y="200.00" />
    <node avg_slowdown_ratio="0.0" id="node_01x03" type="priority" weight_num="4.0" weight_sum="0.0" x="100.00" y="300.00" />
    <node avg_slowdown_ratio="0.0" id="node_01x04" type="priority" weight_num="4.0" weight_sum="0.0" x="100.00" y="400.00" />
    <node avg_slowdown_ratio="0.0" id="node_01x05" type="priority" weight_num="4.0" weight_sum="0.0" x="100.00" y="500.00" />
    <node avg_slowdown_ratio="0.0" id="node_01x06" type="priority" weight_num="4.0" weight_sum="0.0" x="100.00" y="600.00" />
    <node avg_slowdown_ratio="0.0" id="node_01x07" type="priority" weight_num="4.0" weight_sum="0.0" x="100.00" y="700.00" />
    <node avg_slowdown_ratio="0.0" id="node_01x08" type="priority" weight_num="4.0" weight_sum="0.0" x="100.00" y="800.00" />
    <node avg_slowdown_ratio="0.0" id="node_01x09" type="priority" weight_num="4.0" weight_sum="0.0" x="100.00" y="900.00" />
    <node avg_slowdown_ratio="0.0" id="node_01x10" type="priority" weight_num="4.0" weight_sum="0.0" x="100.00" y="1000.00" />
    <node avg_slowdown_ratio="0.0" id="node_01x11" type="priority" weight_num="4.0" weight_sum="0.0" x="100.00" y="1100.00" />
    <node avg_slowdown_ratio="0.0" id="node_01x12" type="priority" weight_num="4.0" weight_sum="0.0" x="100.00" y="1200.00" />
    <node avg_slowdown_ratio="0.0" id="node_01x13" type="priority" weight_num="4.0" weight_sum="0.0" x="100.00" y="1300.00" />
    <node avg_slowdown_ratio="0.0" id="node_01x14" type="priority" weight_num="4.0" weight_sum="0.0" x="100.00" y="1400.00" />
    <node avg_slowdown_ratio="0.0" id="node_01x15" type="priority" weight_num="4.0" weight_sum="0.0" x="100.00" y="1500.00" />
    <node avg_slowdown_ratio="0.0" id="node_01x16" type="priority" weight_num="4.0" weight_sum="0.0" x="100.00" y="1600.00" />
    <node avg_slowdown_ratio="0.0" id="node_01x17" type="priority" weight_num="4.0" weight_sum="0.0" x="100.00" y="1700.00" />
    <node avg_slowdown_ratio="0.0" id="node_01x18" type="priority" weight_num="4.0" weight_sum="0.0" x="100.00" y="1800.00" />
    <node avg_slowdown_ratio="0.0" id="node_01x19" type="priority" weight_num="4.0" weight_sum="0.0" x="100.00" y="1900.00" />
    <node avg_slowdown_ratio="0.0" id="node_01x20" type="priority" weight_num="3.0" weight_sum="0.0" x="100.00" y="2000.00" />
    <node avg_slowdown_ratio="0.0" id="node_02x00" type="priority" weight_num="3.0" weight_sum="0.0" x="200.00" y="0.00" />
    <node avg_slowdown_ratio="0.0" id="node_02x01" type="priority" weight_num="4.0" weight_sum="0.0" x="200.00" y="100.00" />
    <node avg_slowdown_ratio="0.0" id="node_02x02" type="priority" weight_num="4.0" weight_sum="0.0" x="200.00" y="200.00" />
    <node avg_slowdown_ratio="0.0" id="node_02x03" type="priority" weight_num="4.0" weight_sum="0.0" x="200.00" y="300.00" />
    <node avg_slowdown_ratio="0.0" id="node_02x04" type="priority" weight_num="4.0" weight_sum="0.0" x="200.00" y="400.00" />
    <node avg_slowdown_ratio="0.0" id="node_02x05" type="priority" weight_num="4.0" weight_sum="0.0" x="200.00" y="500.00" />
    <node avg_slowdown_ratio="0.0" id="node_02x06" type="priority" weight_num="4.0" weight_sum="0.0" x="200.00" y="600.00" />
    <node avg_slowdown_ratio="0.0" id="node_02x07" type="priority" weight_num="4.0" weight_sum="0.0" x="200.00" y="700.00" />
    <node avg_slowdown_ratio="0.0" id="node_02x08" type="priority" weight_num="4.0" weight_sum="0.0" x="200.00" y="800.00" />
    <node avg_slowdown_ratio="0.0" id="node_02x09" type="priority" weight_num="4.0" weight_sum="0.0" x="200.00" y="900.00" />
    <node avg_slowdown_ratio="0.0" id="node_02x10" type="priority" weight_num="4.0" weight_sum="0.0" x="200.00" y="1000.00" />
    <node avg_slowdown_ratio="0.0" id="node_02x11" type="priority" weight_num="4.0" weight_sum="0.0" x="200.00" y="1100.00" />
    <node avg_slowdown_ratio="0.0" id="node_02x12" type="priority" weight_num="4.0" weight_sum="0.0" x="200.00" y="1200.00" />
    <node avg_slowdown_ratio="0.0" id="node_02x13" type="priority" weight_num="4.0" weight_sum="0.0" x="200.00" y="1300.00" />
    <node avg_slowdown_ratio="0.0" id="node_02x14" type="priority" weight_num="4.0" weight_sum="0.0" x="200.00" y="1400.00" />
    <node avg_slowdown_ratio="0.0" id="node_02x15" type="priority" weight_num="4.0" weight_sum="0.0" x="200.00" y="1500.00" />
    <node avg_slowdown_ratio="0.0" id="node_02x16" type="priority" weight_num="4.0" weight_sum="0.0" x="200.00" y="1600.00" />
    <node avg_slowdown_ratio="0.0" id="node_02x17" type="priority" weight_num="4.0" weight_sum="0.0" x="200.00" y="1700.00" />
    <node avg_slowdown_ratio="0.0" id="node_02x18" type="priority" weight_num="4.0" weight_sum="0.0" x="200.00" y="1800.00" />
    <node avg_slowdown_ratio="0.0" id="node_02x19" type="priority" weight_num="4.0" weight_sum="0.0" x="200.00" y="1900.00" />
    <node avg_slowdown_ratio="0.0" id="node_02x20" type="priority" weight_num="3.0" weight_sum="0.0" x="200.00" y="2000.00" />
    <node avg_slowdown_ratio="0.0" id="node_03x00" type="priority" weight_num="3.0" weight_sum="0.0" x="300.00" y="0.00" />
    <node avg_slowdown_ratio="0.0" id="node_03x01" type="priority" weight_num="4.0" weight_sum="0.0" x="300.00" y="100.00" />
    <node avg_slowdown_ratio="0.0" id="node_03x02" type="priority" weight_num="4.0" weight_sum="0.0" x="300.00" y="200.00" />
    <node avg_slowdown_ratio="0.0" id="node_03x03" type="priority" weight_num="4.0" weight_sum="0.0" x="300.00" y="300.00" />
    <node avg_slowdown_ratio="0.0" id="node_03x04" type="priority" weight_num="4.0" weight_sum="0.0" x="300.00" y="400.00" />
    <node avg_slowdown_ratio="0.0" id="node_03x05" type="priority" weight_num="4.0" weight_sum="0.0" x="300.00" y="500.00" />
    <node avg_slowdown_ratio="0.0" id="node_03x06" type="priority" weight_num="4.0" weight_sum="0.0" x="300.00" y="600.00" />
    <node avg_slowdown_ratio="0.0" id="node_03x07" type="priority" weight_num="4.0" weight_sum="0.0" x="300.00" y="700.00" />
    <node avg_slowdown_ratio="0.0" id="node_03x08" type="priority" weight_num="4.0" weight_sum="0.0" x="300.00" y="800.00" />
    <node avg_slowdown_ratio="0.0" id="node_03x09" type="priority" weight_num="4.0" weight_sum="0.0" x="300.00" y="900.00" />
    <node avg_slowdown_ratio="0.0" id="node_03x10" type="priority" weight_num="4.0" weight_sum="0.0" x="300.00" y="1000.00" />
    <node avg_slowdown_ratio="0.0" id="node_03x11" type="priority" weight_num="4.0" weight_sum="0.0" x="300.00" y="1100.00" />
    <node avg_slowdown_ratio="0.0" id="node_03x12" type="priority" weight_num="4.0" weight_sum="0.0" x="300.00" y="1200.00" />
    <node avg_slowdown_ratio="0.0" id="node_03x13" type="priority" weight_num="4.0" weight_sum="0.0" x="300.00" y="1300.00" />
    <node avg_slowdown_ratio="0.0" id="node_03x14" type="priority" weight_num="4.0" weight_sum="0.0" x="300.00" y="1400.00" />
    <node avg_slowdown_ratio="0.0" id="node_03x15" type="priority" weight_num="4.0" weight_sum="0.0" x="300.00" y="1500.00" />
    <node avg_slowdown_ratio="0.0" id="node_03x16" type="priority" weight_num="4.0" weight_sum="0.0" x="300.00" y="1600.00" />
    <node avg_slowdown_ratio="0.0" id="node_03x17" type="priority" weight_num="4.0" weight_sum="0.0" x="300.00" y="1700.00" />
    <node avg_slowdown_ratio="0.0" id="node_03x18" type="priority" weight_num="4.0" weight_sum="0.0" x="300.00" y="1800.00" />
    <node avg_slowdown_ratio="0.0" id="node_03x19" type="priority" weight_num="4.0" weight_sum="0.0" x="300.00" y="1900.00" />
    <node avg_slowdown_ratio="0.0" id="node_03x20" type="priority" weight_num="3.0" weight_sum="0.0" x="300.00" y="2000.00" />
    <node avg_slowdown_ratio="0.0" id="node_04x00" type="priority" weight_num="3.0" weight_sum="0.0" x="400.00" y="0.00" />
    <node avg_slowdown_ratio="0.0" id="node_04x01" type="priority" weight_num="4.0" weight_sum="0.0" x="400.00" y="100.00" />
    <node avg_slowdown_ratio="0.0" id="node_04x02" type="priority" weight_num="4.0" weight_sum="0.0" x="400.00" y="200.00" />
    <node avg_slowdown_ratio="0.0" id="node_04x03" type="priority" weight_num="4.0" weight_sum="0.0" x="400.00" y="300.00" />
    <node avg_slowdown_ratio="0.0" id="node_04x04" type="priority" weight_num="4.0" weight_sum="0.0" x="400.00" y="400.00" />
    <node avg_slowdown_ratio="0.0" id="node_04x05" type="priority" weight_num="4.0" weight_sum="0.0" x="400.00" y="500.00" />
    <node avg_slowdown_ratio="0.0" id="node_04x06" type="priority" weight_num="4.0" weight_sum="0.0" x="400.00" y="600.00" />
    <node avg_slowdown_ratio="0.0" id="node_04x07" type="priority" weight_num="4.0" weight_sum="0.0" x="400.00" y="700.00" />
    <node avg_slowdown_ratio="0.0" id="node_04x08" type="priority" weight_num="4.0" weight_sum="0.0" x="400.00" y="800.00" />
    <node avg_slowdown_ratio="0.0" id="node_04x09" type="priority" weight_num="4.0" weight_sum="0.0" x="400.00" y="900.00" />
    <node avg_slowdown_ratio="0.0" id="node_04x10" type="priority" weight_num="4.0" weight_sum="0.0" x="400.00" y="1000.00" />
    <node avg_slowdown_ratio="0.0" id="node_04x11" type="priority" weight_num="4.0" weight_sum="0.0" x="400.00" y="1100.00" />
    <node avg_slowdown_ratio="0.0" id="node_04x12" type="priority" weight_num="4.0" weight_sum="0.0" x="400.00" y="1200.00" />
    <node avg_slowdown_ratio="0.0" id="node_04x13" type="priority" weight_num="4.0" weight_sum="0.0" x="400.00" y="1300.00" />
    <node avg_slowdown_ratio="0.0" id="node_04x14" type="priority" weight_num="4.0" weight_sum="0.0" x="400.00" y="1400.00" />
    <node avg_slowdown_ratio="0.0" id="node_04x15" type="priority" weight_num="4.0" weight_sum="0.0" x="400.00" y="1500.00" />
    <node avg_slowdown_ratio="0.0" id="node_04x16" type="priority" weight_num="4.0" weight_sum="0.0" x="400.00" y="1600.00" />
    <node avg_slowdown_ratio="0.0" id="node_04x17" type="priority" weight_num="4.0" weight_sum="0.0" x="400.00" y="1700.00" />
    <node avg_slowdown_ratio="0.0" id="node_04x18" type="priority" weight_num="4.0" weight_sum="0.0" x="400.00" y="1800.00" />
    <node avg_slowdown_ratio="0.0" id="node_04x19" type="priority" weight_num="4.0" weight_sum="0.0" x="400.00" y="1900.00" />
    <node avg_slowdown_ratio="0.0" id="node_04x20" type="priority" weight_num="3.0" weight_sum="0.0" x="400.00" y="2000.00" />
    <node avg_slowdown_ratio="0.0" id="node_05x00" type="priority" weight_num="3.0" weight_sum="0.0" x="500.00" y="0.00" />
    <node avg_slowdown_ratio="0.0" id="node_05x01" type="priority" weight_num="4.0" weight_sum="0.0" x="500.00" y="100.00" />
    <node avg_slowdown_ratio="0.0" id="node_05x02" type="priority" weight_num="4.0" weight_sum="0.0" x="500.00" y="200.00" />
    <node avg_slowdown_ratio="0.0" id="node_05x03" type="priority" weight_num="4.0" weight_sum="0.0" x="500.00" y="300.00" />
    <node avg_slowdown_ratio="0.0" id="node_05x04" type="priority" weight_num="4.0" weight_sum="0.0" x="500.00" y="400.00" />
    <node avg_slowdown_ratio="0.0" id="node_05x05" type="priority" weight_num="4.0" weight_sum="0.0" x="500.00" y="500.00" />
    <node avg_slowdown_ratio="0.0" id="node_05x06" type="priority" weight_num="4.0" weight_sum="0.0" x="500.00" y="600.00" />
    <node avg_slowdown_ratio="0.0" id="node_05x07" type="priority" weight_num="4.0" weight_sum="0.0" x="500.00" y="700.00" />
    <node avg_slowdown_ratio="0.0" id="node_05x08" type="priority" weight_num="4.0" weight_sum="0.0" x="500.00" y="800.00" />
    <node avg_slowdown_ratio="0.0" id="node_05x09" type="priority" weight_num="4.0" weight_sum="0.0" x="500.00" y="900.00" />
    <node avg_slowdown_ratio="0.0" id="node_05x10" type="priority" weight_num="4.0" weight_sum="0.0" x="500.00" y="1000.00" />
    <node avg_slowdown_ratio="0.0" id="node_05x11" type="priority" weight_num="4.0" weight_sum="0.0" x="500.00" y="1100.00" />
    <node avg_slowdown_ratio="0.0" id="node_05x12" type="priority" weight_num="4.0" weight_sum="0.0" x="500.00" y="1200.00" />
    <node avg_slowdown_ratio="0.0" id="node_05x13" type="priority" weight_num="4.0" weight_sum="0.0" x="500.00" y="1300.00" />
    <node avg_slowdown_ratio="0.0" id="node_05x14" type="priority" weight_num="4.0" weight_sum="0.0" x="500.00" y="1400.00" />
    <node avg_slowdown_ratio="0.0" id="node_05x15" type="priority" weight_num="4.0" weight_sum="0.0" x="500.00" y="1500.00" />
    <node avg_slowdown_ratio="0.0" id="node_05x16" type="priority" weight_num="4.0" weight_sum="0.0" x="500.00" y="1600.00" />
    <node avg_slowdown_ratio="0.0" id="node_05x17" type="priority" weight_num="4.0" weight_sum="0.0" x="500.00" y="1700.00" />
    <node avg_slowdown_ratio="0.0" id="node_05x18" type="priority" weight_num="4.0" weight_sum="0.0" x="500.00" y="1800.00" />
    <node avg_slowdown_ratio="0.0" id="node_05x19" type="priority" weight_num="4.0" weight_sum="0.0" x="500.00" y="1900.00" />
    <node avg_slowdown_ratio="0.0" id="node_05x20" type="priority" weight_num="3.0" weight_sum="0.0" x="500.00" y="2000.00" />
    <node avg_slowdown_ratio="0.0" id="node_06x00" type="priority" weight_num="3.0" weight_sum="0.0" x="600.00" y="0.00" />
    <node avg_slowdown_ratio="0.0" id="node_06x01" type="priority" weight_num="4.0" weight_sum="0.0" x="600.00" y="100.00" />
    <node avg_slowdown_ratio="0.0" id="node_06x02" type="priority" weight_num="4.0" weight_sum="0.0" x="600.00" y="200.00" />
    <node avg_slowdown_ratio="0.0" id="node_06x03" type="priority" weight_num="4.0" weight_sum="0.0" x="600.00" y="300.00" />
    <node avg_slowdown_ratio="0.0" id="node_06x04" type="priority" weight_num="4.0" weight_sum="0.0" x="600.00" y="400.00" />
    <node avg_slowdown_ratio="0.0" id="node_06x05" type="priority" weight_num="4.0" weight_sum="0.0" x="600.00" y="500.00" />
    <node avg_slowdown_ratio="0.0" id="node_06x06" type="priority" weight_num="4.0" weight_sum="0.0" x="600.00" y="600.00" />
    <node avg_slowdown_ratio="0.0" id="node_06x07" type="priority" weight_num="4.0" weight_sum="0.0" x="600.00" y="700.00" />
    <node avg_slowdown_ratio="0.0" id="node_06x08" type="priority" weight_num="4.0" weight_sum="0.0" x="600.00" y="800.00" />
    <node avg_slowdown_ratio="0.0" id="node_06x09" type="priority" weight_num="4.0" weight_sum="0.0" x="600.00" y="900.00" />
    <node avg_slowdown_ratio="0.0" id="node_06x10" type="priority" weight_num="4.0" weight_sum="0.0" x="600.00" y="1000.00" />
    <node avg_slowdown_ratio="0.0" id="node_06x11" type="priority" weight_num="4.0" weight_sum="0.0" x="600.00" y="1100.00" />
    <node avg_slowdown_ratio="0.0" id="node_06x12" type="priority" weight_num="4.0" weight_sum="0.0" x="600.00" y="1200.00" />
    <node avg_slowdown_ratio="0.0" id="node_06x13" type="priority" weight_num="4.0" weight_sum="0.0" x="600.00" y="1300.00" />
    <node avg_slowdown_ratio="0.0" id="node_06x14" type="priority" weight_num="4.0" weight_sum="0.0" x="600.00" y="1400.00" />
    <node avg_slowdown_ratio="0.0" id="node_06x15" type="priority" weight_num="4.0" weight_sum="0.0" x="600.00" y="1500.00" />
    <node avg_slowdown_ratio="0.0" id="node_06x16" type="priority" weight_num="4.0" weight_sum="0.0" x="600.00" y="1600.00" />
    <node avg_slowdown_ratio="0.0" id="node_06x17" type="priority" weight_num="4.0" weight_sum="0.0" x="600.00" y="1700.00" />
    <node avg_slowdown_ratio="0.0" id="node_06x18" type="priority" weight_num="4.0" weight_sum="0.0" x="600.00" y="1800.00" />
    <node avg_slowdown_ratio="0.0" id="node_06x19" type="priority" weight_num="4.0" weight_sum="0.0" x="600.00" y="1900.00" />
    <node avg_slowdown_ratio="0.0" id="node_06x20" type="priority" weight_num="3.0" weight_sum="0.0" x="600.00" y="2000.00" />
    <node avg_slowdown_ratio="0.0" id="node_07x00" type="priority" weight_num="3.0" weight_sum="0.0" x="700.00" y="0.00" />
    <node avg_slowdown_ratio="0.0" id="node_07x01" type="priority" weight_num="4.0" weight_sum="0.0" x="700.00" y="100.00" />
    <node avg_slowdown_ratio="0.0" id="node_07x02" type="priority" weight_num="4.0" weight_sum="0.0" x="700.00" y="200.00" />
    <node avg_slowdown_ratio="0.0" id="node_07x03" type="priority" weight_num="4.0" weight_sum="0.0" x="700.00" y="300.00" />
    <node avg_slowdown_ratio="0.0" id="node_07x04" type="priority" weight_num="4.0" weight_sum="0.0" x="700.00" y="400.00" />
    <node avg_slowdown_ratio="0.0" id="node_07x05" type="priority" weight_num="4.0" weight_sum="0.0" x="700.00" y="500.00" />
    <node avg_slowdown_ratio="0.0" id="node_07x06" type="priority" weight_num="4.0" weight_sum="0.0" x="700.00" y="600.00" />
    <node avg_slowdown_ratio="0.0" id="node_07x07" type="priority" weight_num="4.0" weight_sum="0.0" x="700.00" y="700.00" />
    <node avg_slowdown_ratio="0.0" id="node_07x08" type="priority" weight_num="4.0" weight_sum="0.0" x="700.00" y="800.00" />
    <node avg_slowdown_ratio="0.0" id="node_07x09" type="priority" weight_num="4.0" weight_sum="0.0" x="700.00" y="900.00" />
    <node avg_slowdown_ratio="0.0" id="node_07x10" type="priority" weight_num="4.0" weight_sum="0.0" x="700.00" y="1000.00" />
    <node avg_slowdown_ratio="0.0" id="node_07x11" type="priority" weight_num="4.0" weight_sum="0.0" x="700.00" y="1100.00" />
    <node avg_slowdown_ratio="0.0" id="node_07x12" type="priority" weight_num="4.0" weight_sum="0.0" x="700.00" y="1200.00" />
    <node avg_slowdown_ratio="0.999280057598" id="node_07x13" type="priority" weight_num="4.0" weight_sum="3.99712023039" x="700.00" y="1300.00" />
    <node avg_slowdown_ratio="0.0" id="node_07x14" type="priority" weight_num="4.0" weight_sum="0.0" x="700.00" y="1400.00" />
    <node avg_slowdown_ratio="0.0" id="node_07x15" type="priority" weight_num="4.0" weight_sum="0.0" x="700.00" y="1500.00" />
    <node avg_slowdown_ratio="0.0" id="node_07x16" type="priority" weight_num="4.0" weight_sum="0.0" x="700.00" y="1600.00" />
    <node avg_slowdown_ratio="0.0" id="node_07x17" type="priority" weight_num="4.0" weight_sum="0.0" x="700.00" y="1700.00" />
    <node avg_slowdown_ratio="0.0" id="node_07x18" type="priority" weight_num="4.0" weight_sum="0.0" x="700.00" y="1800.00" />
    <node avg_slowdown_ratio="0.0" id="node_07x19" type="priority" weight_num="4.0" weight_sum="0.0" x="700.00" y="1900.00" />
    <node avg_slowdown_ratio="0.0" id="node_07x20" type="priority" weight_num="3.0" weight_sum="0.0" x="700.00" y="2000.00" />
    <node avg_slowdown_ratio="0.0" id="node_08x00" type="priority" weight_num="3.0" weight_sum="0.0" x="800.00" y="0.00" />
    <node avg_slowdown_ratio="0.0" id="node_08x01" type="priority" weight_num="4.0" weight_sum="0.0" x="800.00" y="100.00" />
    <node avg_slowdown_ratio="0.0" id="node_08x02" type="priority" weight_num="4.0" weight_sum="0.0" x="800.00" y="200.00" />
    <node avg_slowdown_ratio="0.0" id="node_08x03" type="priority" weight_num="4.0" weight_sum="0.0" x="800.00" y="300.00" />
    <node avg_slowdown_ratio="0.0" id="node_08x04" type="priority" weight_num="4.0" weight_sum="0.0" x="800.00" y="400.00" />
    <node avg_slowdown_ratio="0.0" id="node_08x05" type="priority" weight_num="4.0" weight_sum="0.0" x="800.00" y="500.00" />
    <node avg_slowdown_ratio="0.0" id="node_08x06" type="priority" weight_num="4.0" weight_sum="0.0" x="800.00" y="600.00" />
    <node avg_slowdown_ratio="0.0" id="node_08x07" type="priority" weight_num="4.0" weight_sum="0.0" x="800.00" y="700.00" />
    <node avg_slowdown_ratio="0.0" id="node_08x08" type="priority" weight_num="4.0" weight_sum="0.0" x="800.00" y="800.00" />
    <node avg_slowdown_ratio="0.0" id="node_08x09" type="priority" weight_num="4.0" weight_sum="0.0" x="800.00" y="900.00" />
    <node avg_slowdown_ratio="0.0" id="node_08x10" type="priority" weight_num="4.0" weight_sum="0.0" x="800.00" y="1000.00" />
    <node avg_slowdown_ratio="0.0" id="node_08x11" type="priority" weight_num="4.0" weight_sum="0.0" x="800.00" y="1100.00" />
    <node avg_slowdown_ratio="0.0" id="node_08x12" type="priority" weight_num="4.0" weight_sum="0.0" x="800.00" y="1200.00" />
    <node avg_slowdown_ratio="0.0" id="node_08x13" type="priority" weight_num="4.0" weight_sum="0.0" x="800.00" y="1300.00" />
    <node avg_slowdown_ratio="0.0" id="node_08x14" type="priority" weight_num="4.0" weight_sum="0.0" x="800.00" y="1400.00" />
    <node avg_slowdown_ratio="0.0" id="node_08x15" type="priority" weight_num="4.0" weight_sum="0.0" x="800.00" y="1500.00" />
    <node avg_slowdown_ratio="0.0" id="node_08x16" type="priority" weight_num="4.0" weight_sum="0.0" x="800.00" y="1600.00" />
    <node avg_slowdown_ratio="0.0" id="node_08x17" type="priority" weight_num="4.0" weight_sum="0.0" x="800.00" y="1700.00" />
    <node avg_slowdown_ratio="0.0" id="node_08x18" type="priority" weight_num="4.0" weight_sum="0.0" x="800.00" y="1800.00" />
    <node avg_slowdown_ratio="0.0" id="node_08x19" type="priority" weight_num="4.0" weight_sum="0.0" x="800.00" y="1900.00" />
    <node avg_slowdown_ratio="0.0" id="node_08x20" type="priority" weight_num="3.0" weight_sum="0.0" x="800.00" y="2000.00" />
    <node avg_slowdown_ratio="0.0" id="node_09x00" type="priority" weight_num="3.0" weight_sum="0.0" x="900.00" y="0.00" />
    <node avg_slowdown_ratio="0.0" id="node_09x01" type="priority" weight_num="4.0" weight_sum="0.0" x="900.00" y="100.00" />
    <node avg_slowdown_ratio="0.0" id="node_09x02" type="priority" weight_num="4.0" weight_sum="0.0" x="900.00" y="200.00" />
    <node avg_slowdown_ratio="0.0" id="node_09x03" type="priority" weight_num="4.0" weight_sum="0.0" x="900.00" y="300.00" />
    <node avg_slowdown_ratio="0.0" id="node_09x04" type="priority" weight_num="4.0" weight_sum="0.0" x="900.00" y="400.00" />
    <node avg_slowdown_ratio="0.0" id="node_09x05" type="priority" weight_num="4.0" weight_sum="0.0" x="900.00" y="500.00" />
    <node avg_slowdown_ratio="0.0" id="node_09x06" type="priority" weight_num="4.0" weight_sum="0.0" x="900.00" y="600.00" />
    <node avg_slowdown_ratio="0.0" id="node_09x07" type="priority" weight_num="4.0" weight_sum="0.0" x="900.00" y="700.00" />
    <node avg_slowdown_ratio="0.0" id="node_09x08" type="priority" weight_num="4.0" weight_sum="0.0" x="900.00" y="800.00" />
    <node avg_slowdown_ratio="0.0" id="node_09x09" type="priority" weight_num="4.0" weight_sum="0.0" x="900.00" y="900.00" />
    <node avg_slowdown_ratio="0.0" id="node_09x10" type="priority" weight_num="4.0" weight_sum="0.0" x="900.00" y="1000.00" />
    <node avg_slowdown_ratio="0.0" id="node_09x11" type="priority" weight_num="4.0" weight_sum="0.0" x="900.00" y="1100.00" />
    <node avg_slowdown_ratio="0.0" id="node_09x12" type="priority" weight_num="4.0" weight_sum="0.0" x="900.00" y="1200.00" />
    <node avg_slowdown_ratio="0.0" id="node_09x13" type="priority" weight_num="4.0" weight_sum="0.0" x="900.00" y="1300.00" />
    <node avg_slowdown_ratio="0.0" id="node_09x14" type="priority" weight_num="4.0" weight_sum="0.0" x="900.00" y="1400.00" />
    <node avg_slowdown_ratio="0.0" id="node_09x15" type="priority" weight_num="4.0" weight_sum="0.0" x="900.00" y="1500.00" />
    <node avg_slowdown_ratio="0.0" id="node_09x16" type="priority" weight_num="4.0" weight_sum="0.0" x="900.00" y="1600.00" />
    <node avg_slowdown_ratio="0.0" id="node_09x17" type="priority" weight_num="4.0" weight_sum="0.0" x="900.00" y="1700.00" />
    <node avg_slowdown_ratio="0.0" id="node_09x18" type="priority" weight_num="4.0" weight_sum="0.0" x="900.00" y="1800.00" />
    <node avg_slowdown_ratio="0.0" id="node_09x19" type="priority" weight_num="4.0" weight_sum="0.0" x="900.00" y="1900.00" />
    <node avg_slowdown_ratio="0.0" id="node_09x20" type="priority" weight_num="3.0" weight_sum="0.0" x="900.00" y="2000.00" />
    <node avg_slowdown_ratio="0.0" id="node_10x00" type="priority" weight_num="3.0" weight_sum="0.0" x="1000.00" y="0.00" />
    <node avg_slowdown_ratio="0.0" id="node_10x01" type="priority" weight_num="4.0" weight_sum="0.0" x="1000.00" y="100.00" />
    <node avg_slowdown_ratio="0.0" id="node_10x02" type="priority" weight_num="4.0" weight_sum="0.0" x="1000.00" y="200.00" />
    <node avg_slowdown_ratio="0.0" id="node_10x03" type="priority" weight_num="4.0" weight_sum="0.0" x="1000.00" y="300.00" />
    <node avg_slowdown_ratio="0.0" id="node_10x04" type="priority" weight_num="4.0" weight_sum="0.0" x="1000.00" y="400.00" />
    <node avg_slowdown_ratio="0.0" id="node_10x05" type="priority" weight_num="4.0" weight_sum="0.0" x="1000.00" y="500.00" />
    <node avg_slowdown_ratio="0.0" id="node_10x06" type="priority" weight_num="4.0" weight_sum="0.0" x="1000.00" y="600.00" />
    <node avg_slowdown_ratio="0.0" id="node_10x07" type="priority" weight_num="4.0" weight_sum="0.0" x="1000.00" y="700.00" />
    <node avg_slowdown_ratio="0.0" id="node_10x08" type="priority" weight_num="4.0" weight_sum="0.0" x="1000.00" y="800.00" />
    <node avg_slowdown_ratio="0.0" id="node_10x09" type="priority" weight_num="4.0" weight_sum="0.0" x="1000.00" y="900.00" />
    <node avg_slowdown_ratio="0.0" id="node_10x10" type="priority" weight_num="4.0" weight_sum="0.0" x="1000.00" y="1000.00" />
    <node avg_slowdown_ratio="0.0" id="node_10x11" type="priority" weight_num="4.0" weight_sum="0.0" x="1000.00" y="1100.00" />
    <node avg_slowdown_ratio="0.0" id="node_10x12" type="priority" weight_num="4.0" weight_sum="0.0" x="1000.00" y="1200.00" />
    <node avg_slowdown_ratio="0.0" id="node_10x13" type="priority" weight_num="4.0" weight_sum="0.0" x="1000.00" y="1300.00" />
    <node avg_slowdown_ratio="0.0" id="node_10x14" type="priority" weight_num="4.0" weight_sum="0.0" x="1000.00" y="1400.00" />
    <node avg_slowdown_ratio="0.0" id="node_10x15" type="priority" weight_num="4.0" weight_sum="0.0" x="1000.00" y="1500.00" />
    <node avg_slowdown_ratio="0.0" id="node_10x16" type="priority" weight_num="4.0" weight_sum="0.0" x="1000.00" y="1600.00" />
    <node avg_slowdown_ratio="0.0" id="node_10x17" type="priority" weight_num="4.0" weight_sum="0.0" x="1000.00" y="1700.00" />
    <node avg_slowdown_ratio="0.0" id="node_10x18" type="priority" weight_num="4.0" weight_sum="0.0" x="1000.00" y="1800.00" />
    <node avg_slowdown_ratio="0.0" id="node_10x19" type="priority" weight_num="4.0" weight_sum="0.0" x="1000.00" y="1900.00" />
    <node avg_slowdown_ratio="0.0" id="node_10x20" type="priority" weight_num="3.0" weight_sum="0.0" x="1000.00" y="2000.00" />
    <node avg_slowdown_ratio="0.0" id="node_11x00" type="priority" weight_num="3.0" weight_sum="0.0" x="1100.00" y="0.00" />
    <node avg_slowdown_ratio="0.0" id="node_11x01" type="priority" weight_num="4.0" weight_sum="0.0" x="1100.00" y="100.00" />
    <node avg_slowdown_ratio="0.0" id="node_11x02" type="priority" weight_num="4.0" weight_sum="0.0" x="1100.00" y="200.00" />