<?xml version='1.0' encoding='UTF-8'?>
<nodes xmlns:xsi="http://www.w3.org/2001/XMLSchema-instance" version="0.27" xsi:noNamespaceSchemaLocation="http://sumo.dlr.de/xsd/nodes_file.xsd">
    <location convBoundary="0.00,0.00,2000.00,2000.00" netOffset="-224973.31,-2700122.99" origBoundary="54.286966,24.391306,54.609531,24.591038" projParameter="+proj=utm +zone=40 +ellps=WGS84 +datum=WGS84 +units=m +no_defs" />

    <node id="node_0" type="right_before_left" x="-88821.0" y="-88821.0" />
    <node id="node_1" type="right_before_left" x="-88603.0" y="-80293.0" />
    <node id="node_2" type="right_before_left" x="-88572.0" y="-71559.0" />
    <node id="node_3" type="right_before_left" x="-88624.0" y="-62724.0" />
    <node id="node_4" type="right_before_left" x="-88710.0" y="-53831.0" />
    <node id="node_5" type="right_before_left" x="-88807.0" y="-44899.0" />
    <node id="node_6" type="right_before_left" x="-88898.0" y="-35942.0" />
    <node id="node_7" type="right_before_left" x="-88976.0" y="-26968.0" />
    <node id="node_8" type="right_before_left" x="-89035.0" y="-17984.0" />
    <node id="node_9" type="right_before_left" x="-89071.0" y="-8993.5" />
    <node id="node_10" type="right_before_left" x="-89084.0" y="0.0025985" />
    <node id="node_11" type="right_before_left" x="-89071.0" y="8993.5" />
    <node id="node_12" type="right_before_left" x="-89035.0" y="17984.0" />
    <node id="node_13" type="right_before_left" x="-88976.0" y="26968.0" />
    <node id="node_14" type="right_before_left" x="-88898.0" y="35942.0" />
    <node id="node_15" type="right_before_left" x="-88807.0" y="44899.0" />
    <node id="node_16" type="right_before_left" x="-88710.0" y="53831.0" />
    <node id="node_17" type="right_before_left" x="-88624.0" y="62724.0" />
    <node id="node_18" type="right_before_left" x="-88572.0" y="71559.0" />
    <node id="node_19" type="right_before_left" x="-88603.0" y="80293.0" />
    <node id="node_20" type="right_before_left" x="-88821.0" y="88821.0" />
    <node id="node_21" type="right_before_left" x="-80293.0" y="-88603.0" />
    <node id="node_22" type="right_before_left" x="-79992.0" y="-79992.0" />
    <node id="node_23" type="right_before_left" x="-79945.0" y="-71213.0" />
    <node id="node_24" type="right_before_left" x="-79993.0" y="-62379.0" />
    <node id="node_25" type="right_before_left" x="-80078.0" y="-53514.0" />
    <node id="node_26" type="right_before_left" x="-80172.0" y="-44625.0" />
    <node id="node_27" type="right_before_left" x="-80262.0" y="-35718.0" />
    <node id="node_28" type="right_before_left" x="-80338.0" y="-26798.0" />
    <node id="node_29" type="right_before_left" x="-80395.0" y="-17870.0" />
    <node id="node_30" type="right_before_left" x="-80430.0" y="-8936.3" />
    <node id="node_31" type="right_before_left" x="-80442.0" y="-0.0069394" />
    <node id="node_32" type="right_before_left" x="-80430.0" y="8936.3" />
    <node id="node_33" type="right_before_left" x="-80395.0" y="17870.0" />
    <node id="node_34" type="right_before_left" x="-80338.0" y="26798.0" />
    <node id="node_35" type="right_before_left" x="-80262.0" y="35718.0" />
    <node id="node_36" type="right_before_left" x="-80172.0" y="44625.0" />
    <node id="node_37" type="right_before_left" x="-80078.0" y="53514.0" />
    <node id="node_38" type="right_before_left" x="-79993.0" y="62379.0" />
    <node id="node_39" type="right_before_left" x="-79945.0" y="71213.0" />
    <node id="node_40" type="right_before_left" x="-79992.0" y="79992.0" />
    <node id="node_41" type="right_before_left" x="-80293.0" y="88603.0" />
    <node id="node_42" type="right_before_left" x="-71559.0" y="-88572.0" />
    <node id="node_43" type="right_before_left" x="-71212.0" y="-79945.0" />
    <node id="node_44" type="right_before_left" x="-71134.0" y="-71134.0" />
    <node id="node_45" type="right_before_left" x="-71164.0" y="-62276.0" />
    <node id="node_46" type="right_before_left" x="-71239.0" y="-53402.0" />
    <node id="node_47" type="right_before_left" x="-71328.0" y="-44516.0" />
    <node id="node_48" type="right_before_left" x="-71414.0" y="-35622.0" />
    <node id="node_49" type="right_before_left" x="-71487.0" y="-26722.0" />
    <node id="node_50" type="right_before_left" x="-71542.0" y="-17817.0" />
    <node id="node_51" type="right_before_left" x="-71576.0" y="-8909.3" />
    <node id="node_52" type="right_before_left" x="-71588.0" y="-0.0039457" />
    <node id="node_53" type="right_before_left" x="-71576.0" y="8909.3" />
    <node id="node_54" type="right_before_left" x="-71542.0" y="17817.0" />
    <node id="node_55" type="right_before_left" x="-71487.0" y="26722.0" />
    <node id="node_56" type="right_before_left" x="-71414.0" y="35622.0" />
    <node id="node_57" type="right_before_left" x="-71328.0" y="44516.0" />
    <node id="node_58" type="right_before_left" x="-71239.0" y="53402.0" />
    <node id="node_59" type="right_before_left" x="-71164.0" y="62276.0" />
    <node id="node_60" type="right_before_left" x="-71134.0" y="71134.0" />
    <node id="node_61" type="right_before_left" x="-71212.0" y="79945.0" />
    <node id="node_62" type="right_before_left" x="-71559.0" y="88572.0" />
    <node id="node_63" type="right_before_left" x="-62724.0" y="-88624.0" />
    <node id="node_64" type="right_before_left" x="-62379.0" y="-79993.0" />
    <node id="node_65" type="right_before_left" x="-62276.0" y="-71164.0" />
    <node id="node_66" type="right_before_left" x="-62284.0" y="-62284.0" />
    <node id="node_67" type="right_before_left" x="-62343.0" y="-53393.0" />
    <node id="node_68" type="right_before_left" x="-62420.0" y="-44497.0" />
    <node id="node_69" type="right_before_left" x="-62497.0" y="-35599.0" />
    <node id="node_70" type="right_before_left" x="-62565.0" y="-26700.0" />
    <node id="node_71" type="right_before_left" x="-62616.0" y="-17800.0" />
    <node id="node_72" type="right_before_left" x="-62647.0" y="-8900.3" />
    <node id="node_73" type="right_before_left" x="-62658.0" y="-0.011084" />
    <node id="node_74" type="right_before_left" x="-62647.0" y="8900.4" />
    <node id="node_75" type="right_before_left" x="-62616.0" y="17800.0" />
    <node id="node_76" type="right_before_left" x="-62565.0" y="26700.0" />
    <node id="node_77" type="right_before_left" x="-62498.0" y="35599.0" />
    <node id="node_78" type="right_before_left" x="-62420.0" y="44497.0" />
    <node id="node_79" type="right_before_left" x="-62343.0" y="53392.0" />
    <node id="node_80" type="right_before_left" x="-62284.0" y="62284.0" />
    <node id="node_81" type="right_before_left" x="-62276.0" y="71164.0" />
    <node id="node_82" type="right_before_left" x="-62379.0" y="79993.0" />
    <node id="node_83" type="right_before_left" x="-62724.0" y="88624.0" />
    <node id="node_84" type="right_before_left" x="-53831.0" y="-88710.0" />
    <node id="node_85" type="right_before_left" x="-53514.0" y="-80078.0" />
    <node id="node_86" type="right_before_left" x="-53402.0" y="-71239.0" />
    <node id="node_87" type="right_before_left" x="-53392.0" y="-62343.0" />
    <node id="node_88" type="right_before_left" x="-53434.0" y="-53435.0" />
    <node id="node_89" type="right_before_left" x="-53497.0" y="-44524.0" />
    <node id="node_90" type="right_before_left" x="-53563.0" y="-35616.0" />
    <node id="node_91" type="right_before_left" x="-53622.0" y="-26709.0" />
    <node id="node_92" type="right_before_left" x="-53667.0" y="-17805.0" />
    <node id="node_93" type="right_before_left" x="-53696.0" y="-8902.1" />
    <node id="node_94" type="right_before_left" x="-53705.0" y="-0.01516" />
    <node id="node_95" type="right_before_left" x="-53695.0" y="8902.2" />
    <node id="node_96" type="right_before_left" x="-53667.0" y="17805.0" />
    <node id="node_97" type="right_before_left" x="-53622.0" y="26709.0" />
    <node id="node_98" type="right_before_left" x="-53563.0" y="35616.0" />
    <node id="node_99" type="right_before_left" x="-53497.0" y="44524.0" />
    <node id="node_100" type="right_before_left" x="-53434.0" y="53435.0" />
    <node id="node_101" type="right_before_left" x="-53392.0" y="62343.0" />
    <node id="node_102" type="right_before_left" x="-53402.0" y="71239.0" />
    <node id="node_103" type="right_before_left" x="-53514.0" y="80078.0" />
    <node id="node_104" type="right_before_left" x="-53831.0" y="88710.0" />
    <node id="node_105" type="right_before_left" x="-44899.0" y="-88807.0" />
    <node id="node_106" type="right_before_left" x="-44625.0" y="-80172.0" />
    <node id="node_107" type="right_before_left" x="-44516.0" y="-71328.0" />
    <node id="node_108" type="right_before_left" x="-44497.0" y="-62420.0" />
    <node id="node_109" type="right_before_left" x="-44524.0" y="-53497.0" />
    <node id="node_110" type="right_before_left" x="-44573.0" y="-44573.0" />
    <node id="node_111" type="right_before_left" x="-44627.0" y="-35652.0" />
    <node id="node_112" type="right_before_left" x="-44676.0" y="-26734.0" />
    <node id="node_113" type="right_before_left" x="-44714.0" y="-17821.0" />
    <node id="node_114" type="right_before_left" x="-44738.0" y="-8909.6" />
    <node id="node_115" type="right_before_left" x="-44746.0" y="-0.0095784" />
    <node id="node_116" type="right_before_left" x="-44738.0" y="8909.6" />
    <node id="node_117" type="right_before_left" x="-44714.0" y="17821.0" />
    <node id="node_118" type="right_before_left" x="-44676.0" y="26734.0" />
    <node id="node_119" type="right_before_left" x="-44627.0" y="35652.0" />
    <node id="node_120" type="right_before_left" x="-44573.0" y="44573.0" />
    <node id="node_121" type="right_before_left" x="-44524.0" y="53497.0" />
    <node id="node_122" type="right_before_left" x="-44497.0" y="62420.0" />
    <node id="node_123" type="right_before_left" x="-44516.0" y="71328.0" />
    <node id="node_124" type="right_before_left" x="-44625.0" y="80172.0" />
    <node id="node_125" type="right_before_left" x="-44899.0" y="88807.0" />
    <node id="node_126" type="right_before_left" x="-35942.0" y="-88898.0" />
    <node id="node_127" type="right_before_left" x="-35718.0" y="-80262.0" />
    <node id="node_128" type="right_before_left" x="-35622.0" y="-71414.0" />
    <node id="node_129" type="right_before_left" x="-35599.0" y="-62497.0" />
    <node id="node_130" type="right_before_left" x="-35616.0" y="-53563.0" />
    <node id="node_131" type="right_before_left" x="-35652.0" y="-44627.0" />
    <node id="node_132" type="right_before_left" x="-35693.0" y="-35693.0" />
    <node id="node_133" type="right_before_left" x="-35732.0" y="-26764.0" />
    <node id="node_134" type="right_before_left" x="-35763.0" y="-17840.0" />
    <node id="node_135" type="right_before_left" x="-35782.0" y="-8919.1" />
    <node id="node_136" type="right_before_left" x="-35789.0" y="-0.0058665" />
    <node id="node_137" type="right_before_left" x="-35782.0" y="8919.1" />
    <node id="node_138" type="right_before_left" x="-35763.0" y="17840.0" />
    <node id="node_139" type="right_before_left" x="-35732.0" y="26764.0" />
    <node id="node_140" type="right_before_left" x="-35693.0" y="35693.0" />
    <node id="node_141" type="right_before_left" x="-35652.0" y="44627.0" />
    <node id="node_142" type="right_before_left" x="-35616.0" y="53563.0" />
    <node id="node_143" type="right_before_left" x="-35599.0" y="62498.0" />
    <node id="node_144" type="right_before_left" x="-35622.0" y="71414.0" />
    <node id="node_145" type="right_before_left" x="-35718.0" y="80262.0" />
    <node id="node_146" type="right_before_left" x="-35942.0" y="88898.0" />
    <node id="node_147" type="right_before_left" x="-26968.0" y="-88976.0" />
    <node id="node_148" type="right_before_left" x="-26798.0" y="-80338.0" />
    <node id="node_149" type="right_before_left" x="-26722.0" y="-71487.0" />
    <node id="node_150" type="right_before_left" x="-26700.0" y="-62565.0" />
    <node id="node_151" type="right_before_left" x="-26709.0" y="-53622.0" />
    <node id="node_152" type="right_before_left" x="-26734.0" y="-44676.0" />
    <node id="node_153" type="right_before_left" x="-26764.0" y="-35732.0" />
    <node id="node_154" type="right_before_left" x="-26793.0" y="-26793.0" />
    <node id="node_155" type="right_before_left" x="-26816.0" y="-17859.0" />
    <node id="node_156" type="right_before_left" x="-26830.0" y="-8928.4" />
    <node id="node_157" type="right_before_left" x="-26835.0" y="-0.005013" />
    <node id="node_158" type="right_before_left" x="-26830.0" y="8928.4" />
    <node id="node_159" type="right_before_left" x="-26816.0" y="17859.0" />
    <node id="node_160" type="right_before_left" x="-26793.0" y="26793.0" />
    <node id="node_161" type="right_before_left" x="-26764.0" y="35732.0" />
    <node id="node_162" type="right_before_left" x="-26734.0" y="44676.0" />
    <node id="node_163" type="right_before_left" x="-26709.0" y="53622.0" />
    <node id="node_164" type="right_before_left" x="-26700.0" y="62565.0" />
    <node id="node_165" type="right_before_left" x="-26722.0" y="71487.0" />
    <node id="node_166" type="right_before_left" x="-26798.0" y="80338.0" />
    <node id="node_167" type="right_before_left" x="-26968.0" y="88976.0" />
    <node id="node_168" type="right_before_left" x="-17984.0" y="-89035.0" />
    <node id="node_169" type="right_before_left" x="-17870.0" y="-80395.0" />
    <node id="node_170" type="right_before_left" x="-17817.0" y="-71542.0" />
    <node id="node_171" type="right_before_left" x="-17800.0" y="-62616.0" />
    <node id="node_172" type="right_before_left" x="-17805.0" y="-53667.0" />
    <node id="node_173" type="right_before_left" x="-17821.0" y="-44714.0" />
    <node id="node_174" type="right_before_left" x="-17840.0" y="-35763.0" />
    <node id="node_175" type="right_before_left" x="-17859.0" y="-26816.0" />
    <node id="node_176" type="right_before_left" x="-17874.0" y="-17874.0" />
    <node id="node_177" type="right_before_left" x="-17884.0" y="-8935.9" />
    <node id="node_178" type="right_before_left" x="-17887.0" y="-0.0056588" />
    <node id="node_179" type="right_before_left" x="-17884.0" y="8935.9" />
    <node id="node_180" type="right_before_left" x="-17874.0" y="17874.0" />
    <node id="node_181" type="right_before_left" x="-17859.0" y="26816.0" />
    <node id="node_182" type="right_before_left" x="-17840.0" y="35763.0" />
    <node id="node_183" type="right_before_left" x="-17821.0" y="44714.0" />
    <node id="node_184" type="right_before_left" x="-17805.0" y="53667.0" />
    <node id="node_185" type="right_before_left" x="-17800.0" y="62616.0" />
    <node id="node_186" type="right_before_left" x="-17817.0" y="71542.0" />
    <node id="node_187" type="right_before_left" x="-17870.0" y="80395.0" />
    <node id="node_188" type="right_before_left" x="-17984.0" y="89035.0" />
    <node id="node_189" type="right_before_left" x="-8993.5" y="-89071.0" />
    <node id="node_190" type="right_before_left" x="-8936.3" y="-80430.0" />
    <node id="node_191" type="right_before_left" x="-8909.3" y="-71576.0" />
    <node id="node_192" type="right_before_left" x="-8900.3" y="-62647.0" />
    <node id="node_193" type="right_before_left" x="-8902.2" y="-53696.0" />
    <node id="node_194" type="right_before_left" x="-8909.6" y="-44738.0" />
    <node id="node_195" type="right_before_left" x="-8919.1" y="-35782.0" />
    <node id="node_196" type="right_before_left" x="-8928.3" y="-26830.0" />
    <node id="node_197" type="right_before_left" x="-8935.9" y="-17884.0" />
    <node id="node_198" type="right_before_left" x="-8940.7" y="-8940.7" />
    <node id="node_199" type="right_before_left" x="-8942.3" y="-0.0047348" />
    <node id="node_200" type="right_before_left" x="-8940.7" y="8940.7" />
    <node id="node_201" type="right_before_left" x="-8935.9" y="17884.0" />
    <node id="node_202" type="right_before_left" x="-8928.3" y="26830.0" />
    <node id="node_203" type="right_before_left" x="-8919.1" y="35782.0" />
    <node id="node_204" type="right_before_left" x="-8909.6" y="44738.0" />
    <node id="node_205" type="right_before_left" x="-8902.2" y="53696.0" />
    <node id="node_206" type="right_before_left" x="-8900.3" y="62647.0" />
    <node id="node_207" type="right_before_left" x="-8909.3" y="71576.0" />
    <node id="node_208" type="right_before_left" x="-8936.3" y="80430.0" />
    <node id="node_209" type="right_before_left" x="-8993.5" y="89071.0" />
    <node id="node_210" type="right_before_left" x="0.025458" y="-89084.0" />
    <node id="node_211" type="right_before_left" x="0.028091" y="-80442.0" />
    <node id="node_212" type="right_before_left" x="0.0016851" y="-71588.0" />
    <node id="node_213" type="right_before_left" x="0.017399" y="-62658.0" />
    <node id="node_214" type="right_before_left" x="0.0076511" y="-53705.0" />
    <node id="node_215" type="right_before_left" x="0.014079" y="-44746.0" />
    <node id="node_216" type="right_before_left" x="0.0099573" y="-35789.0" />
    <node id="node_217" type="right_before_left" x="0.0070662" y="-26835.0" />
    <node id="node_218" type="right_before_left" x="0.00066741" y="-17887.0" />
    <node id="node_219" type="right_before_left" x="0.021923" y="-8942.4" />
    <node id="node_220" type="right_before_left" x="0.015363" y="-0.0074536" />
    <node id="node_221" type="right_before_left" x="0.026027" y="8942.4" />
    <node id="node_222" type="right_before_left" x="0.012517" y="17887.0" />
    <node id="node_223" type="right_before_left" x="0.01143" y="26835.0" />
    <node id="node_224" type="right_before_left" x="0.0044208" y="35789.0" />
    <node id="node_225" type="right_before_left" x="0.007595" y="44746.0" />
    <node id="node_226" type="right_before_left" x="0.016974" y="53705.0" />
    <node id="node_227" type="right_before_left" x="0.042483" y="62658.0" />
    <node id="node_228" type="right_before_left" x="0.0071923" y="71588.0" />
    <node id="node_229" type="right_before_left" x="0.040672" y="80442.0" />
    <node id="node_230" type="right_before_left" x="0.023824" y="89084.0" />
    <node id="node_231" type="right_before_left" x="8993.5" y="-89071.0" />
    <node id="node_232" type="right_before_left" x="8936.4" y="-80430.0" />
    <node id="node_233" type="right_before_left" x="8909.3" y="-71576.0" />
    <node id="node_234" type="right_before_left" x="8900.3" y="-62647.0" />
    <node id="node_235" type="right_before_left" x="8902.2" y="-53696.0" />
    <node id="node_236" type="right_before_left" x="8909.6" y="-44738.0" />
    <node id="node_237" type="right_before_left" x="8919.1" y="-35782.0" />
    <node id="node_238" type="right_before_left" x="8928.4" y="-26830.0" />
    <node id="node_239" type="right_before_left" x="8935.9" y="-17884.0" />
    <node id="node_240" type="right_before_left" x="8940.7" y="-8940.7" />
    <node id="node_241" type="right_before_left" x="8942.4" y="-0.0084012" />
    <node id="node_242" type="right_before_left" x="8940.7" y="8940.7" />
    <node id="node_243" type="right_before_left" x="8935.9" y="17884.0" />
    <node id="node_244" type="right_before_left" x="8928.4" y="26830.0" />
    <node id="node_245" type="right_before_left" x="8919.1" y="35782.0" />
    <node id="node_246" type="right_before_left" x="8909.6" y="44738.0" />
    <node id="node_247" type="right_before_left" x="8902.2" y="53696.0" />
    <node id="node_248" type="right_before_left" x="8900.4" y="62647.0" />
    <node id="node_249" type="right_before_left" x="8909.3" y="71576.0" />
    <node id="node_250" type="right_before_left" x="8936.4" y="80430.0" />
    <node id="node_251" type="right_before_left" x="8993.6" y="89071.0" />
    <node id="node_252" type="right_before_left" x="17984.0" y="-89035.0" />
    <node id="node_253" type="right_before_left" x="17870.0" y="-80395.0" />
    <node id="node_254" type="right_before_left" x="17817.0" y="-71542.0" />
    <node id="node_255" type="right_before_left" x="17800.0" y="-62616.0" />
    <node id="node_256" type="right_before_left" x="17805.0" y="-53667.0" />
    <node id="node_257" type="right_before_left" x="17821.0" y="-44714.0" />
    <node id="node_258" type="right_before_left" x="17840.0" y="-35763.0" />
    <node id="node_259" type="right_before_left" x="17859.0" y="-26816.0" />
    <node id="node_260" type="right_before_left" x="17874.0" y="-17874.0" />
    <node id="node_261" type="right_before_left" x="17884.0" y="-8935.9" />
    <node id="node_262" type="right_before_left" x="17887.0" y="-0.0097964" />
    <node id="node_263" type="right_before_left" x="17884.0" y="8935.9" />
    <node id="node_264" type="right_before_left" x="17874.0" y="17874.0" />
    <node id="node_265" type="right_before_left" x="17859.0" y="26816.0" />
    <node id="node_266" type="right_before_left" x="17840.0" y="35763.0" />
    <node id="node_267" type="right_before_left" x="17821.0" y="44714.0" />
    <node id="node_268" type="right_before_left" x="17805.0" y="53667.0" />
    <node id="node_269" type="right_before_left" x="17800.0" y="62616.0" />
    <node id="node_270" type="right_before_left" x="17817.0" y="71542.0" />
    <node id="node_271" type="right_before_left" x="17870.0" y="80395.0" />
    <node id="node_272" type="right_before_left" x="17984.0" y="89035.0" />
    <node id="node_273" type="right_before_left" x="26968.0" y="-88976.0" />
    <node id="node_274" type="right_before_left" x="26798.0" y="-80338.0" />
    <node id="node_275" type="right_before_left" x="26722.0" y="-71487.0" />
    <node id="node_276" type="right_before_left" x="26700.0" y="-62565.0" />
    <node id="node_277" type="right_before_left" x="26709.0" y="-53622.0" />
    <node id="node_278" type="right_before_left" x="26734.0" y="-44676.0" />
    <node id="node_279" type="right_before_left" x="26764.0" y="-35732.0" />
    <node id="node_280" type="right_before_left" x="26793.0" y="-26793.0" />
    <node id="node_281" type="right_before_left" x="26816.0" y="-17859.0" />
    <node id="node_282" type="right_before_left" x="26830.0" y="-8928.4" />
    <node id="node_283" type="right_before_left" x="26835.0" y="-0.0094694" />
    <node id="node_284" type="right_before_left" x="26830.0" y="8928.4" />
    <node id="node_285" type="right_before_left" x="26816.0" y="17859.0" />
    <node id="node_286" type="right_before_left" x="26793.0" y="26793.0" />
    <node id="node_287" type="right_before_left" x="26764.0" y="35732.0" />
    <node id="node_288" type="right_before_left" x="26734.0" y="44676.0" />
    <node id="node_289" type="right_before_left" x="26709.0" y="53622.0" />
    <node id="node_290" type="right_before_left" x="26700.0" y="62565.0" />
    <node id="node_291" type="right_before_left" x="26722.0" y="71487.0" />
    <node id="node_292" type="right_before_left" x="26798.0" y="80338.0" />
    <node id="node_293" type="right_before_left" x="26968.0" y="88976.0" />
    <node id="node_294" type="right_before_left" x="35942.0" y="-88898.0" />
    <node id="node_295" type="right_before_left" x="35718.0" y="-80262.0" />
    <node id="node_296" type="right_before_left" x="35622.0" y="-71414.0" />
    <node id="node_297" type="right_before_left" x="35599.0" y="-62498.0" />
    <node id="node_298" type="right_before_left" x="35616.0" y="-53564.0" />
    <node id="node_299" type="right_before_left" x="35652.0" y="-44627.0" />
    <node id="node_300" type="right_before_left" x="35693.0" y="-35693.0" />
    <node id="node_301" type="right_before_left" x="35732.0" y="-26764.0" />
    <node id="node_302" type="right_before_left" x="35763.0" y="-17840.0" />
    <node id="node_303" type="right_before_left" x="35782.0" y="-8919.1" />
    <node id="node_304" type="right_before_left" x="35789.0" y="-0.0069616" />
    <node id="node_305" type="right_before_left" x="35782.0" y="8919.1" />
    <node id="node_306" type="right_before_left" x="35763.0" y="17840.0" />
    <node id="node_307" type="right_before_left" x="35732.0" y="26764.0" />
    <node id="node_308" type="right_before_left" x="35693.0" y="35693.0" />
    <node id="node_309" type="right_before_left" x="35652.0" y="44627.0" />
    <node id="node_310" type="right_before_left" x="35616.0" y="53564.0" />
    <node id="node_311" type="right_before_left" x="35599.0" y="62498.0" />
    <node id="node_312" type="right_before_left" x="35622.0" y="71414.0" />
    <node id="node_313" type="right_before_left" x="35718.0" y="80262.0" />
    <node id="node_314" type="right_before_left" x="35942.0" y="88898.0" />
    <node id="node_315" type="right_before_left" x="44899.0" y="-88807.0" />
    <node id="node_316" type="right_before_left" x="44625.0" y="-80172.0" />
    <node id="node_317" type="right_before_left" x="44516.0" y="-71328.0" />
    <node id="node_318" type="right_before_left" x="44497.0" y="-62420.0" />
    <node id="node_319" type="right_before_left" x="44524.0" y="-53498.0" />
    <node id="node_320" type="right_before_left" x="44573.0" y="-44573.0" />
    <node id="node_321" type="right_before_left" x="44627.0" y="-35652.0" />
    <node id="node_322" type="right_before_left" x="44676.0" y="-26734.0" />
    <node id="node_323" type="right_before_left" x="44714.0" y="-17821.0" />
    <node id="node_324" type="right_before_left" x="44738.0" y="-8909.6" />
    <node id="node_325" type="right_before_left" x="44746.0" y="0.00074042" />
    <node id="node_326" type="right_before_left" x="44738.0" y="8909.6" />
    <node id="node_327" type="right_before_left" x="44714.0" y="17821.0" />
    <node id="node_328" type="right_before_left" x="44676.0" y="26734.0" />
    <node id="node_329" type="right_before_left" x="44627.0" y="35652.0" />
    <node id="node_330" type="right_before_left" x="44573.0" y="44573.0" />
    <node id="node_331" type="right_before_left" x="44524.0" y="53498.0" />
    <node id="node_332" type="right_before_left" x="44497.0" y="62420.0" />
    <node id="node_333" type="right_before_left" x="44516.0" y="71328.0" />
    <node id="node_334" type="right_before_left" x="44625.0" y="80172.0" />
    <node id="node_335" type="right_before_left" x="44899.0" y="88807.0" />
    <node id="node_336" type="right_before_left" x="53831.0" y="-88710.0" />
    <node id="node_337" type="right_before_left" x="53514.0" y="-80078.0" />
    <node id="node_338" type="right_before_left" x="53402.0" y="-71239.0" />
    <node id="node_339" type="right_before_left" x="53393.0" y="-62343.0" />
    <node id="node_340" type="right_before_left" x="53435.0" y="-53435.0" />
    <node id="node_341" type="right_before_left" x="53498.0" y="-44524.0" />
    <node id="node_342" type="right_before_left" x="53564.0" y="-35616.0" />
    <node id="node_343" type="right_before_left" x="53622.0" y="-26710.0" />
    <node id="node_344" type="right_before_left" x="53667.0" y="-17805.0" />
    <node id="node_345" type="right_before_left" x="53696.0" y="-8902.2" />
    <node id="node_346" type="right_before_left" x="53705.0" y="-0.0030354" />
    <node id="node_347" type="right_before_left" x="53696.0" y="8902.2" />
    <node id="node_348" type="right_before_left" x="53667.0" y="17805.0" />
    <node id="node_349" type="right_before_left" x="53622.0" y="26709.0" />
    <node id="node_350" type="right_before_left" x="53564.0" y="35616.0" />
    <node id="node_351" type="right_before_left" x="53498.0" y="44524.0" />
    <node id="node_352" type="right_before_left" x="53435.0" y="53435.0" />
    <node id="node_353" type="right_before_left" x="53393.0" y="62343.0" />
    <node id="node_354" type="right_before_left" x="53402.0" y="71239.0" />
    <node id="node_355" type="right_before_left" x="53514.0" y="80078.0" />
    <node id="node_356" type="right_before_left" x="53831.0" y="88710.0" />
    <node id="node_357" type="right_before_left" x="62724.0" y="-88624.0" />
    <node id="node_358" type="right_before_left" x="62379.0" y="-79993.0" />
    <node id="node_359" type="right_before_left" x="62276.0" y="-71164.0" />
    <node id="node_360" type="right_before_left" x="62284.0" y="-62284.0" />
    <node id="node_361" type="right_before_left" x="62343.0" y="-53393.0" />
    <node id="node_362" type="right_before_left" x="62420.0" y="-44497.0" />
    <node id="node_363" type="right_before_left" x="62497.0" y="-35599.0" />
    <node id="node_364" type="right_before_left" x="62565.0" y="-26700.0" />
    <node id="node_365" type="right_before_left" x="62616.0" y="-17800.0" />
    <node id="node_366" type="right_before_left" x="62647.0" y="-8900.3" />
    <node id="node_367" type="right_before_left" x="62658.0" y="-0.0096008" />
    <node id="node_368" type="right_before_left" x="62647.0" y="8900.4" />
    <node id="node_369" type="right_before_left" x="62616.0" y="17800.0" />
    <node id="node_370" type="right_before_left" x="62565.0" y="26700.0" />
    <node id="node_371" type="right_before_left" x="62498.0" y="35599.0" />
    <node id="node_372" type="right_before_left" x="62420.0" y="44497.0" />
    <node id="node_373" type="right_before_left" x="62343.0" y="53392.0" />
    <node id="node_374" type="right_before_left" x="62284.0" y="62284.0" />
    <node id="node_375" type="right_before_left" x="62276.0" y="71164.0" />
    <node id="node_376" type="right_before_left" x="62379.0" y="79993.0" />
    <node id="node_377" type="right_before_left" x="62724.0" y="88624.0" />
    <node id="node_378" type="right_before_left" x="71559.0" y="-88572.0" />
    <node id="node_379" type="right_before_left" x="71213.0" y="-79945.0" />
    <node id="node_380" type="right_before_left" x="71134.0" y="-71134.0" />
    <node id="node_381" type="right_before_left" x="71164.0" y="-62276.0" />
    <node id="node_382" type="right_before_left" x="71239.0" y="-53402.0" />
    <node id="node_383" type="right_before_left" x="71328.0" y="-44516.0" />
    <node id="node_384" type="right_before_left" x="71414.0" y="-35622.0" />