<?xml version='1.0' encoding='UTF-8'?>
<connections xmlns:xsi="http://www.w3.org/2001/XMLSchema-instance" version="0.27" xsi:noNamespaceSchemaLocation="http://sumo.dlr.de/xsd/connections_file.xsd">
    <connection from="xedge_00x00" fromLane="0" to="yedge_01x00" toLane="0" />
    <connection from="xedge_00x00" fromLane="0" to="xedge_00x02" toLane="0" />

    <connection from="xedge_00x01" fromLane="0" to="yedge_00x00" toLane="0" />

    <connection from="xedge_00x02" fromLane="0" to="yedge_02x00" toLane="0" />
    <connection from="xedge_00x02" fromLane="0" to="xedge_00x04" toLane="0" />

    <connection from="xedge_00x03" fromLane="0" to="xedge_00x01" toLane="0" />
    <connection from="xedge_00x03" fromLane="0" to="yedge_01x00" toLane="0" />

    <connection from="xedge_00x04" fromLane="0" to="yedge_03x00" toLane="0" />
    <connection from="xedge_00x04" fromLane="0" to="xedge_00x06" toLane="0" />

    <connection from="xedge_00x05" fromLane="0" to="xedge_00x03" toLane="0" />
    <connection from="xedge_00x05" fromLane="0" to="yedge_02x00" toLane="0" />

    <connection from="xedge_00x06" fromLane="0" to="yedge_04x00" toLane="0" />
    <connection from="xedge_00x06" fromLane="0" to="xedge_00x08" toLane="0" />

    <connection from="xedge_00x07" fromLane="0" to="xedge_00x05" toLane="0" />
    <connection from="xedge_00x07" fromLane="0" to="yedge_03x00" toLane="0" />

    <connection from="xedge_00x08" fromLane="0" to="yedge_05x00" toLane="0" />
    <connection from="xedge_00x08" fromLane="0" to="xedge_00x10" toLane="0" />

    <connection from="xedge_00x09" fromLane="0" to="xedge_00x07" toLane="0" />
    <connection from="xedge_00x09" fromLane="0" to="yedge_04x00" toLane="0" />

    <connection from="xedge_00x10" fromLane="0" to="yedge_06x00" toLane="0" />
    <connection from="xedge_00x10" fromLane="0" to="xedge_00x12" toLane="0" />

    <connection from="xedge_00x11" fromLane="0" to="xedge_00x09" toLane="0" />
    <connection from="xedge_00x11" fromLane="0" to="yedge_05x00" toLane="0" />

    <connection from="xedge_00x12" fromLane="0" to="yedge_07x00" toLane="0" />
    <connection from="xedge_00x12" fromLane="0" to="xedge_00x14" toLane="0" />

    <connection from="xedge_00x13" fromLane="0" to="xedge_00x11" toLane="0" />
    <connection from="xedge_00x13" fromLane="0" to="yedge_06x00" toLane="0" />

    <connection from="xedge_00x14" fromLane="0" to="yedge_08x00" toLane="0" />
    <connection from="xedge_00x14" fromLane="0" to="xedge_00x16" toLane="0" />

    <connection from="xedge_00x15" fromLane="0" to="xedge_00x13" toLane="0" />
    <connection from="xedge_00x15" fromLane="0" to="yedge_07x00" toLane="0" />

    <connection from="xedge_00x16" fromLane="0" to="yedge_09x00" toLane="0" />
    <connection from="xedge_00x16" fromLane="0" to="xedge_00x18" toLane="0" />

    <connection from="xedge_00x17" fromLane="0" to="xedge_00x15" toLane="0" />
    <connection from="xedge_00x17" fromLane="0" to="yedge_08x00" toLane="0" />

    <connection from="xedge_00x18" fromLane="0" to="yedge_10x00" toLane="0" />
    <connection from="xedge_00x18" fromLane="0" to="xedge_00x20" toLane="0" />

    <connection from="xedge_00x19" fromLane="0" to="xedge_00x17" toLane="0" />
    <connection from="xedge_00x19" fromLane="0" to="yedge_09x00" toLane="0" />

    <connection from="xedge_00x20" fromLane="0" to="yedge_11x00" toLane="0" />
    <connection from="xedge_00x20" fromLane="0" to="xedge_00x22" toLane="0" />

    <connection from="xedge_00x21" fromLane="0" to="xedge_00x19" toLane="0" />
    <connection from="xedge_00x21" fromLane="0" to="yedge_10x00" toLane="0" />

    <connection from="xedge_00x22" fromLane="0" to="yedge_12x00" toLane="0" />
    <connection from="xedge_00x22" fromLane="0" to="xedge_00x24" toLane="0" />

    <connection from="xedge_00x23" fromLane="0" to="xedge_00x21" toLane="0" />
    <connection from="xedge_00x23" fromLane="0" to="yedge_11x00" toLane="0" />

    <connection from="xedge_00x24" fromLane="0" to="yedge_13x00" toLane="0" />
    <connection from="xedge_00x24" fromLane="0" to="xedge_00x26" toLane="0" />

    <connection from="xedge_00x25" fromLane="0" to="xedge_00x23" toLane="0" />
    <connection from="xedge_00x25" fromLane="0" to="yedge_12x00" toLane="0" />

    <connection from="xedge_00x26" fromLane="0" to="yedge_14x00" toLane="0" />
    <connection from="xedge_00x26" fromLane="0" to="xedge_00x28" toLane="0" />

    <connection from="xedge_00x27" fromLane="0" to="xedge_00x25" toLane="0" />
    <connection from="xedge_00x27" fromLane="0" to="yedge_13x00" toLane="0" />

    <connection from="xedge_00x28" fromLane="0" to="yedge_15x00" toLane="0" />
    <connection from="xedge_00x28" fromLane="0" to="xedge_00x30" toLane="0" />

    <connection from="xedge_00x29" fromLane="0" to="xedge_00x27" toLane="0" />
    <connection from="xedge_00x29" fromLane="0" to="yedge_14x00" toLane="0" />

    <connection from="xedge_00x30" fromLane="0" to="yedge_16x00" toLane="0" />
    <connection from="xedge_00x30" fromLane="0" to="xedge_00x32" toLane="0" />

    <connection from="xedge_00x31" fromLane="0" to="xedge_00x29" toLane="0" />
    <connection from="xedge_00x31" fromLane="0" to="yedge_15x00" toLane="0" />

    <connection from="xedge_00x32" fromLane="0" to="yedge_17x00" toLane="0" />
    <connection from="xedge_00x32" fromLane="0" to="xedge_00x34" toLane="0" />

    <connection from="xedge_00x33" fromLane="0" to="xedge_00x31" toLane="0" />
    <connection from="xedge_00x33" fromLane="0" to="yedge_16x00" toLane="0" />

    <connection from="xedge_00x34" fromLane="0" to="yedge_18x00" toLane="0" />
    <connection from="xedge_00x34" fromLane="0" to="xedge_00x36" toLane="0" />

    <connection from="xedge_00x35" fromLane="0" to="xedge_00x33" toLane="0" />
    <connection from="xedge_00x35" fromLane="0" to="yedge_17x00" toLane="0" />

    <connection from="xedge_00x36" fromLane="0" to="yedge_19x00" toLane="0" />
    <connection from="xedge_00x36" fromLane="0" to="xedge_00x38" toLane="0" />

    <connection from="xedge_00x37" fromLane="0" to="xedge_00x35" toLane="0" />
    <connection from="xedge_00x37" fromLane="0" to="yedge_18x00" toLane="0" />

    <connection from="xedge_00x38" fromLane="0" to="yedge_20x00" toLane="0" />

    <connection from="xedge_00x39" fromLane="0" to="xedge_00x37" toLane="0" />
    <connection from="xedge_00x39" fromLane="0" to="yedge_19x00" toLane="0" />

    <connection from="xedge_01x00" fromLane="0" to="yedge_01x02" toLane="0" />
    <connection from="xedge_01x00" fromLane="0" to="xedge_01x02" toLane="0" />
    <connection from="xedge_01x00" fromLane="0" to="yedge_01x01" toLane="0" />

    <connection from="xedge_01x01" fromLane="0" to="yedge_00x01" toLane="0" />
    <connection from="xedge_01x01" fromLane="0" to="yedge_00x02" toLane="0" />

    <connection from="xedge_01x02" fromLane="0" to="yedge_02x02" toLane="0" />
    <connection from="xedge_01x02" fromLane="0" to="xedge_01x04" toLane="0" />
    <connection from="xedge_01x02" fromLane="0" to="yedge_02x01" toLane="0" />

    <connection from="xedge_01x03" fromLane="0" to="yedge_01x01" toLane="0" />
    <connection from="xedge_01x03" fromLane="0" to="xedge_01x01" toLane="0" />
    <connection from="xedge_01x03" fromLane="0" to="yedge_01x02" toLane="0" />

    <connection from="xedge_01x04" fromLane="0" to="yedge_03x02" toLane="0" />
    <connection from="xedge_01x04" fromLane="0" to="xedge_01x06" toLane="0" />
    <connection from="xedge_01x04" fromLane="0" to="yedge_03x01" toLane="0" />

    <connection from="xedge_01x05" fromLane="0" to="yedge_02x01" toLane="0" />
    <connection from="xedge_01x05" fromLane="0" to="xedge_01x03" toLane="0" />
    <connection from="xedge_01x05" fromLane="0" to="yedge_02x02" toLane="0" />

    <connection from="xedge_01x06" fromLane="0" to="yedge_04x02" toLane="0" />
    <connection from="xedge_01x06" fromLane="0" to="xedge_01x08" toLane="0" />
    <connection from="xedge_01x06" fromLane="0" to="yedge_04x01" toLane="0" />

    <connection from="xedge_01x07" fromLane="0" to="yedge_03x01" toLane="0" />
    <connection from="xedge_01x07" fromLane="0" to="xedge_01x05" toLane="0" />
    <connection from="xedge_01x07" fromLane="0" to="yedge_03x02" toLane="0" />

    <connection from="xedge_01x08" fromLane="0" to="yedge_05x02" toLane="0" />
    <connection from="xedge_01x08" fromLane="0" to="xedge_01x10" toLane="0" />
    <connection from="xedge_01x08" fromLane="0" to="yedge_05x01" toLane="0" />

    <connection from="xedge_01x09" fromLane="0" to="yedge_04x01" toLane="0" />
    <connection from="xedge_01x09" fromLane="0" to="xedge_01x07" toLane="0" />
    <connection from="xedge_01x09" fromLane="0" to="yedge_04x02" toLane="0" />

    <connection from="xedge_01x10" fromLane="0" to="yedge_06x02" toLane="0" />
    <connection from="xedge_01x10" fromLane="0" to="xedge_01x12" toLane="0" />
    <connection from="xedge_01x10" fromLane="0" to="yedge_06x01" toLane="0" />

    <connection from="xedge_01x11" fromLane="0" to="yedge_05x01" toLane="0" />
    <connection from="xedge_01x11" fromLane="0" to="xedge_01x09" toLane="0" />
    <connection from="xedge_01x11" fromLane="0" to="yedge_05x02" toLane="0" />

    <connection from="xedge_01x12" fromLane="0" to="yedge_07x02" toLane="0" />
    <connection from="xedge_01x12" fromLane="0" to="xedge_01x14" toLane="0" />
    <connection from="xedge_01x12" fromLane="0" to="yedge_07x01" toLane="0" />

    <connection from="xedge_01x13" fromLane="0" to="yedge_06x01" toLane="0" />
    <connection from="xedge_01x13" fromLane="0" to="xedge_01x11" toLane="0" />
    <connection from="xedge_01x13" fromLane="0" to="yedge_06x02" toLane="0" />

    <connection from="xedge_01x14" fromLane="0" to="yedge_08x02" toLane="0" />
    <connection from="xedge_01x14" fromLane="0" to="xedge_01x16" toLane="0" />
    <connection from="xedge_01x14" fromLane="0" to="yedge_08x01" toLane="0" />

    <connection from="xedge_01x15" fromLane="0" to="yedge_07x01" toLane="0" />
    <connection from="xedge_01x15" fromLane="0" to="xedge_01x13" toLane="0" />
    <connection from="xedge_01x15" fromLane="0" to="yedge_07x02" toLane="0" />

    <connection from="xedge_01x16" fromLane="0" to="yedge_09x02" toLane="0" />
    <connection from="xedge_01x16" fromLane="0" to="xedge_01x18" toLane="0" />
    <connection from="xedge_01x16" fromLane="0" to="yedge_09x01" toLane="0" />

    <connection from="xedge_01x17" fromLane="0" to="yedge_08x01" toLane="0" />
    <connection from="xedge_01x17" fromLane="0" to="xedge_01x15" toLane="0" />
    <connection from="xedge_01x17" fromLane="0" to="yedge_08x02" toLane="0" />

    <connection from="xedge_01x18" fromLane="0" to="yedge_10x02" toLane="0" />
    <connection from="xedge_01x18" fromLane="0" to="xedge_01x20" toLane="0" />
    <connection from="xedge_01x18" fromLane="0" to="yedge_10x01" toLane="0" />

    <connection from="xedge_01x19" fromLane="0" to="yedge_09x01" toLane="0" />
    <connection from="xedge_01x19" fromLane="0" to="xedge_01x17" toLane="0" />
    <connection from="xedge_01x19" fromLane="0" to="yedge_09x02" toLane="0" />

    <connection from="xedge_01x20" fromLane="0" to="yedge_11x02" toLane="0" />
    <connection from="xedge_01x20" fromLane="0" to="xedge_01x22" toLane="0" />
    <connection from="xedge_01x20" fromLane="0" to="yedge_11x01" toLane="0" />

    <connection from="xedge_01x21" fromLane="0" to="yedge_10x01" toLane="0" />
    <connection from="xedge_01x21" fromLane="0" to="xedge_01x19" toLane="0" />
    <connection from="xedge_01x21" fromLane="0" to="yedge_10x02" toLane="0" />

    <connection from="xedge_01x22" fromLane="0" to="yedge_12x02" toLane="0" />
    <connection from="xedge_01x22" fromLane="0" to="xedge_01x24" toLane="0" />
    <connection from="xedge_01x22" fromLane="0" to="yedge_12x01" toLane="0" />

    <connection from="xedge_01x23" fromLane="0" to="yedge_11x01" toLane="0" />
    <connection from="xedge_01x23" fromLane="0" to="xedge_01x21" toLane="0" />
    <connection from="xedge_01x23" fromLane="0" to="yedge_11x02" toLane="0" />

    <connection from="xedge_01x24" fromLane="0" to="yedge_13x02" toLane="0" />
    <connection from="xedge_01x24" fromLane="0" to="xedge_01x26" toLane="0" />
    <connection from="xedge_01x24" fromLane="0" to="yedge_13x01" toLane="0" />

    <connection from="xedge_01x25" fromLane="0" to="yedge_12x01" toLane="0" />
    <connection from="xedge_01x25" fromLane="0" to="xedge_01x23" toLane="0" />
    <connection from="xedge_01x25" fromLane="0" to="yedge_12x02" toLane="0" />

    <connection from="xedge_01x26" fromLane="0" to="yedge_14x02" toLane="0" />
    <connection from="xedge_01x26" fromLane="0" to="xedge_01x28" toLane="0" />
    <connection from="xedge_01x26" fromLane="0" to="yedge_14x01" toLane="0" />

    <connection from="xedge_01x27" fromLane="0" to="yedge_13x01" toLane="0" />
    <connection from="xedge_01x27" fromLane="0" to="xedge_01x25" toLane="0" />
    <connection from="xedge_01x27" fromLane="0" to="yedge_13x02" toLane="0" />

    <connection from="xedge_01x28" fromLane="0" to="yedge_15x02" toLane="0" />
    <connection from="xedge_01x28" fromLane="0" to="xedge_01x30" toLane="0" />
    <connection from="xedge_01x28" fromLane="0" to="yedge_15x01" toLane="0" />

    <connection from="xedge_01x29" fromLane="0" to="yedge_14x01" toLane="0" />
    <connection from="xedge_01x29" fromLane="0" to="xedge_01x27" toLane="0" />
    <connection from="xedge_01x29" fromLane="0" to="yedge_14x02" toLane="0" />

    <connection from="xedge_01x30" fromLane="0" to="yedge_16x02" toLane="0" />
    <connection from="xedge_01x30" fromLane="0" to="xedge_01x32" toLane="0" />
    <connection from="xedge_01x30" fromLane="0" to="yedge_16x01" toLane="0" />

    <connection from="xedge_01x31" fromLane="0" to="yedge_15x01" toLane="0" />
    <connection from="xedge_01x31" fromLane="0" to="xedge_01x29" toLane="0" />
    <connection from="xedge_01x31" fromLane="0" to="yedge_15x02" toLane="0" />

    <connection from="xedge_01x32" fromLane="0" to="yedge_17x02" toLane="0" />
    <connection from="xedge_01x32" fromLane="0" to="xedge_01x34" toLane="0" />
    <connection from="xedge_01x32" fromLane="0" to="yedge_17x01" toLane="0" />

    <connection from="xedge_01x33" fromLane="0" to="yedge_16x01" toLane="0" />
    <connection from="xedge_01x33" fromLane="0" to="xedge_01x31" toLane="0" />
    <connection from="xedge_01x33" fromLane="0" to="yedge_16x02" toLane="0" />

    <connection from="xedge_01x34" fromLane="0" to="yedge_18x02" toLane="0" />
    <connection from="xedge_01x34" fromLane="0" to="xedge_01x36" toLane="0" />
    <connection from="xedge_01x34" fromLane="0" to="yedge_18x01" toLane="0" />

    <connection from="xedge_01x35" fromLane="0" to="yedge_17x01" toLane="0" />
    <connection from="xedge_01x35" fromLane="0" to="xedge_01x33" toLane="0" />
    <connection from="xedge_01x35" fromLane="0" to="yedge_17x02" toLane="0" />

    <connection from="xedge_01x36" fromLane="0" to="yedge_19x02" toLane="0" />
    <connection from="xedge_01x36" fromLane="0" to="xedge_01x38" toLane="0" />
    <connection from="xedge_01x36" fromLane="0" to="yedge_19x01" toLane="0" />

    <connection from="xedge_01x37" fromLane="0" to="yedge_18x01" toLane="0" />
    <connection from="xedge_01x37" fromLane="0" to="xedge_01x35" toLane="0" />
    <connection from="xedge_01x37" fromLane="0" to="yedge_18x02" toLane="0" />

    <connection from="xedge_01x38" fromLane="0" to="yedge_20x02" toLane="0" />
    <connection from="xedge_01x38" fromLane="0" to="yedge_20x01" toLane="0" />

    <connection from="xedge_01x39" fromLane="0" to="yedge_19x01" toLane="0" />
    <connection from="xedge_01x39" fromLane="0" to="xedge_01x37" toLane="0" />
    <connection from="xedge_01x39" fromLane="0" to="yedge_19x02" toLane="0" />

    <connection from="xedge_02x00" fromLane="0" to="yedge_01x04" toLane="0" />
    <connection from="xedge_02x00" fromLane="0" to="xedge_02x02" toLane="0" />
    <connection from="xedge_02x00" fromLane="0" to="yedge_01x03" toLane="0" />

    <connection from="xedge_02x01" fromLane="0" to="yedge_00x03" toLane="0" />
    <connection from="xedge_02x01" fromLane="0" to="yedge_00x04" toLane="0" />

    <connection from="xedge_02x02" fromLane="0" to="yedge_02x04" toLane="0" />
    <connection from="xedge_02x02" fromLane="0" to="xedge_02x04" toLane="0" />
    <connection from="xedge_02x02" fromLane="0" to="yedge_02x03" toLane="0" />

    <connection from="xedge_02x03" fromLane="0" to="yedge_01x03" toLane="0" />
    <connection from="xedge_02x03" fromLane="0" to="xedge_02x01" toLane="0" />
    <connection from="xedge_02x03" fromLane="0" to="yedge_01x04" toLane="0" />

    <connection from="xedge_02x04" fromLane="0" to="yedge_03x04" toLane="0" />
    <connection from="xedge_02x04" fromLane="0" to="xedge_02x06" toLane="0" />
    <connection from="xedge_02x04" fromLane="0" to="yedge_03x03" toLane="0" />

    <connection from="xedge_02x05" fromLane="0" to="yedge_02x03" toLane="0" />
    <connection from="xedge_02x05" fromLane="0" to="xedge_02x03" toLane="0" />
    <connection from="xedge_02x05" fromLane="0" to="yedge_02x04" toLane="0" />

    <connection from="xedge_02x06" fromLane="0" to="yedge_04x04" toLane="0" />
    <connection from="xedge_02x06" fromLane="0" to="xedge_02x08" toLane="0" />
    <connection from="xedge_02x06" fromLane="0" to="yedge_04x03" toLane="0" />

    <connection from="xedge_02x07" fromLane="0" to="yedge_03x03" toLane="0" />
    <connection from="xedge_02x07" fromLane="0" to="xedge_02x05" toLane="0" />
    <connection from="xedge_02x07" fromLane="0" to="yedge_03x04" toLane="0" />

    <connection from="xedge_02x08" fromLane="0" to="yedge_05x04" toLane="0" />
    <connection from="xedge_02x08" fromLane="0" to="xedge_02x10" toLane="0" />
    <connection from="xedge_02x08" fromLane="0" to="yedge_05x03" toLane="0" />

    <connection from="xedge_02x09" fromLane="0" to="yedge_04x03" toLane="0" />
    <connection from="xedge_02x09" fromLane="0" to="xedge_02x07" toLane="0" />
    <connection from="xedge_02x09" fromLane="0" to="yedge_04x04" toLane="0" />

    <connection from="xedge_02x10" fromLane="0" to="yedge_06x04" toLane="0" />
    <connection from="xedge_02x10" fromLane="0" to="xedge_02x12" toLane="0" />
    <connection from="xedge_02x10" fromLane="0" to="yedge_06x03" toLane="0" />

    <connection from="xedge_02x11" fromLane="0" to="yedge_05x03" toLane="0" />
    <connection from="xedge_02x11" fromLane="0" to="xedge_02x09" toLane="0" />
    <connection from="xedge_02x11" fromLane="0" to="yedge_05x04" toLane="0" />

    <connection from="xedge_02x12" fromLane="0" to="yedge_07x04" toLane="0" />
    <connection from="xedge_02x12" fromLane="0" to="xedge_02x14" toLane="0" />
    <connection from="xedge_02x12" fromLane="0" to="yedge_07x03" toLane="0" />

    <connection from="xedge_02x13" fromLane="0" to="yedge_06x03" toLane="0" />
    <connection from="xedge_02x13" fromLane="0" to="xedge_02x11" toLane="0" />
    <connection from="xedge_02x13" fromLane="0" to="yedge_06x04" toLane="0" />

    <connection from="xedge_02x14" fromLane="0" to="yedge_08x04" toLane="0" />
    <connection from="xedge_02x14" fromLane="0" to="xedge_02x16" toLane="0" />
    <connection from="xedge_02x14" fromLane="0" to="yedge_08x03" toLane="0" />

    <connection from="xedge_02x15" fromLane="0" to="yedge_07x03" toLane="0" />
    <connection from="xedge_02x15" fromLane="0" to="xedge_02x13" toLane="0" />
    <connection from="xedge_02x15" fromLane="0" to="yedge_07x04" toLane="0" />

    <connection from="xedge_02x16" fromLane="0" to="yedge_09x04" toLane="0" />
    <connection from="xedge_02x16" fromLane="0" to="xedge_02x18" toLane="0" />
    <connection from="xedge_02x16" fromLane="0" to="yedge_09x03" toLane="0" />

    <connection from="xedge_02x17" fromLane="0" to="yedge_08x03" toLane="0" />
    <connection from="xedge_02x17" fromLane="0" to="xedge_02x15" toLane="0" />
    <connection from="xedge_02x17" fromLane="0" to="yedge_08x04" toLane="0" />

    <connection from="xedge_02x18" fromLane="0" to="yedge_10x04" toLane="0" />
    <connection from="xedge_02x18" fromLane="0" to="xedge_02x20" toLane="0" />
    <connection from="xedge_02x18" fromLane="0" to="yedge_10x03" toLane="0" />

    <connection from="xedge_02x19" fromLane="0" to="yedge_09x03" toLane="0" />
    <connection from="xedge_02x19" fromLane="0" to="xedge_02x17" toLane="0" />
    <connection from="xedge_02x19" fromLane="0" to="yedge_09x04" toLane="0" />

    <connection from="xedge_02x20" fromLane="0" to="yedge_11x04" toLane="0" />
    <connection from="xedge_02x20" fromLane="0" to="xedge_02x22" toLane="0" />
    <connection from="xedge_02x20" fromLane="0" to="yedge_11x03" toLane="0" />

    <connection from="xedge_02x21" fromLane="0" to="yedge_10x03" toLane="0" />
    <connection from="xedge_02x21" fromLane="0" to="xedge_02x19" toLane="0" />
    <connection from="xedge_02x21" fromLane="0" to="yedge_10x04" toLane="0" />

    <connection from="xedge_02x22" fromLane="0" to="yedge_12x04" toLane="0" />
    <connection from="xedge_02x22" fromLane="0" to="xedge_02x24" toLane="0" />
    <connection from="xedge_02x22" fromLane="0" to="yedge_12x03" toLane="0" />

    <connection from="xedge_02x23" fromLane="0" to="yedge_11x03" toLane="0" />
    <connection from="xedge_02x23" fromLane="0" to="xedge_02x21" toLane="0" />
    <connection from="xedge_02x23" fromLane="0" to="yedge_11x04" toLane="0" />

    <connection from="xedge_02x24" fromLane="0" to="yedge_13x04" toLane="0" />
    <connection from="xedge_02x24" fromLane="0" to="xedge_02x26" toLane="0" />
    <connection from="xedge_02x24" fromLane="0" to="yedge_13x03" toLane="0" />

    <connection from="xedge_02x25" fromLane="0" to="yedge_12x03" toLane="0" />
    <connection from="xedge_02x25" fromLane="0" to="xedge_02x23" toLane="0" />
    <connection from="xedge_02x25" fromLane="0" to="yedge_12x04" toLane="0" />

    <connection from="xedge_02x26" fromLane="0" to="yedge_14x04" toLane="0" />
    <connection from="xedge_02x26" fromLane="0" to="xedge_02x28" toLane="0" />
    <connection from="xedge_02x26" fromLane="0" to="yedge_14x03" toLane="0" />

    <connection from="xedge_02x27" fromLane="0" to="yedge_13x03" toLane="0" />
    <connection from="xedge_02x27" fromLane="0" to="xedge_02x25" toLane="0" />
    <connection from="xedge_02x27" fromLane="0" to="yedge_13x04" toLane="0" />

    <connection from="xedge_02x28" fromLane="0" to="yedge_15x04" toLane="0" />
    <connection from="xedge_02x28" fromLane="0" to="xedge_02x30" toLane="0" />
    <connection from="xedge_02x28" fromLane="0" to="yedge_15x03" toLane="0" />

    <connection from="xedge_02x29" fromLane="0" to="yedge_14x03" toLane="0" />
    <connection from="xedge_02x29" fromLane="0" to="xedge_02x27" toLane="0" />
    <connection from="xedge_02x29" fromLane="0" to="yedge_14x04" toLane="0" />

    <connection from="xedge_02x30" fromLane="0" to="yedge_16x04" toLane="0" />
    <connection from="xedge_02x30" fromLane="0" to="xedge_02x32" toLane="0" />
    <connection from="xedge_02x30" fromLane="0" to="yedge_16x03" toLane="0" />

    <connection from="xedge_02x31" fromLane="0" to="yedge_15x03" toLane="0" />
    <connection from="xedge_02x31" fromLane="0" to="xedge_02x29" toLane="0" />
    <connection from="xedge_02x31" fromLane="0" to="yedge_15x04" toLane="0" />

    <connection from="xedge_02x32" fromLane="0" to="yedge_17x04" toLane="0" />
    <connection from="xedge_02x32" fromLane="0" to="xedge_02x34" toLane="0" />
    <connection from="xedge_02x32" fromLane="0" to="yedge_17x03" toLane="0" />

    <connection from="xedge_02x33" fromLane="0" to="yedge_16x03" toLane="0" />
    <connection from="xedge_02x33" fromLane="0" to="xedge_02x31" toLane="0" />
    <connection from="xedge_02x33" fromLane="0" to="yedge_16x04" toLane="0" />

    <connection from="xedge_02x34" fromLane="0" to="yedge_18x04" toLane="0" />
    <connection from="xedge_02x34" fromLane="0" to="xedge_02x36" toLane="0" />
    <connection from="xedge_02x34" fromLane="0" to="yedge_18x03" toLane="0" />

    <connection from="xedge_02x35" fromLane="0" to="yedge_17x03" toLane="0" />
    <connection from="xedge_02x35" fromLane="0" to="xedge_02x33" toLane="0" />
    <connection from="xedge_02x35" fromLane="0" to="yedge_17x04" toLane="0" />

    <connection from="xedge_02x36" fromLane="0" to="yedge_19x04" toLane="0" />
    <connection from="xedge_02x36" fromLane="0" to="xedge_02x38" toLane="0" />
    <connection from="xedge_02x36" fromLane="0" to="yedge_19x03" toLane="0" />

    <connection from="xedge_02x37" fromLane="0" to="yedge_18x03" toLane="0" />
    <connection from="xedge_02x37" fromLane="0" to="xedge_02x35" toLane="0" />
    <connection from="xedge_02x37" fromLane="0" to="yedge_18x04" toLane="0" />

    <connection from="xedge_02x38" fromLane="0" to="yedge_20x04" toLane="0" />
    <connection from="xedge_02x38" fromLane="0" to="yedge_20x03" toLane="0" />

    <connection from="xedge_02x39" fromLane="0" to="yedge_19x03" toLane="0" />
    <connection from="xedge_02x39" fromLane="0" to="xedge_02x37" toLane="0" />
    <connection from="xedge_02x39" fromLane="0" to="yedge_19x04" toLane="0" />

    <connection from="xedge_03x00" fromLane="0" to="yedge_01x06" toLane="0" />
    <connection from="xedge_03x00" fromLane="0" to="xedge_03x02" toLane="0" />
    <connection from="xedge_03x00" fromLane="0" to="yedge_01x05" toLane="0" />

    <connection from="xedge_03x01" fromLane="0" to="yedge_00x05" toLane="0" />
    <connection from="xedge_03x01" fromLane="0" to="yedge_00x06" toLane="0" />

    <connection from="xedge_03x02" fromLane="0" to="yedge_02x06" toLane="0" />
    <connection from="xedge_03x02" fromLane="0" to="xedge_03x04" toLane="0" />
    <connection from="xedge_03x02" fromLane="0" to="yedge_02x05" toLane="0" />

    <connection from="xedge_03x03" fromLane="0" to="yedge_01x05" toLane="0" />
    <connection from="xedge_03x03" fromLane="0" to="xedge_03x01" toLane="0" />
    <connection from="xedge_03x03" fromLane="0" to="yedge_01x06" toLane="0" />

    <connection from="xedge_03x04" fromLane="0" to="yedge_03x06" toLane="0" />
    <connection from="xedge_03x04" fromLane="0" to="xedge_03x06" toLane="0" />
    <connection from="xedge_03x04" fromLane="0" to="yedge_03x05" toLane="0" />

    <connection from="xedge_03x05" fromLane="0" to="yedge_02x05" toLane="0" />
    <connection from="xedge_03x05" fromLane="0" to="xedge_03x03" toLane="0" />
    <connection from="xedge_03x05" fromLane="0" to="yedge_02x06" toLane="0" />

    <connection from="xedge_03x06" fromLane="0" to="yedge_04x06" toLane="0" />
    <connection from="xedge_03x06" fromLane="0" to="xedge_03x08" toLane="0" />
    <connection from="xedge_03x06" fromLane="0" to="yedge_04x05" toLane="0" />

    <connection from="xedge_03x07" fromLane="0" to="yedge_03x05" toLane="0" />
    <connection from="xedge_03x07" fromLane="0" to="xedge_03x05" toLane="0" />
    <connection from="xedge_03x07" fromLane="0" to="yedge_03x06" toLane="0" />

    <connection from="xedge_03x08" fromLane="0" to="yedge_05x06" toLane="0" />
    <connection from="xedge_03x08" fromLane="0" to="xedge_03x10" toLane="0" />
    <connection from="xedge_03x08" fromLane="0" to="yedge_05x05" toLane="0" />

    <connection from="xedge_03x09" fromLane="0" to="yedge_04x05" toLane="0" />
    <connection from="xedge_03x09" fromLane="0" to="xedge_03x07" toLane="0" />
    <connection from="xedge_03x09" fromLane="0" to="yedge_04x06" toLane="0" />

    <connection from="xedge_03x10" fromLane="0" to="yedge_06x06" toLane="0" />
    <connection from="xedge_03x10" fromLane="0" to="xedge_03x12" toLane="0" />
    <connection from="xedge_03x10" fromLane="0" to="yedge_06x05" toLane="0" />

    <connection from="xedge_03x11" fromLane="0" to="yedge_05x05" toLane="0" />
    <connection from="xedge_03x11" fromLane="0" to="xedge_03x09" toLane="0" />
    <connection from="xedge_03x11" fromLane="0" to="yedge_05x06" toLane="0" />

    <connection from="xedge_03x12" fromLane="0" to="yedge_07x06" toLane="0" />
    <connection from="xedge_03x12" fromLane="0" to="xedge_03x14" toLane="0" />
    <connection from="xedge_03x12" fromLane="0" to="yedge_07x05" toLane="0" />

    <connection from="xedge_03x13" fromLane="0" to="yedge_06x05" toLane="0" />
    <connection from="xedge_03x13" fromLane="0" to="xedge_03x11" toLane="0" />
    <connection from="xedge_03x13" fromLane="0" to="yedge_06x06" toLane="0" />

    <connection from="xedge_03x14" fromLane="0" to="yedge_08x06" toLane="0" />
    <connection from="xedge_03x14" fromLane="0" to="xedge_03x16" toLane="0" />
    <connection from="xedge_03x14" fromLane="0" to="yedge_08x05" toLane="0" />

    <connection from="xedge_03x15" fromLane="0" to="yedge_07x05" toLane="0" />
    <connection from="xedge_03x15" fromLane="0" to="xedge_03x13" toLane="0" />
    <connection from="xedge_03x15" fromLane="0" to="yedge_07x06" toLane="0" />

    <connection from="xedge_03x16" fromLane="0" to="yedge_09x06" toLane="0" />
    <connection from="xedge_03x16" fromLane="0" to="xedge_03x18" toLane="0" />
    <connection from="xedge_03x16" fromLane="0" to="yedge_09x05" toLane="0" />

    <connection from="xedge_03x17" fromLane="0" to="yedge_08x05" toLane="0" />
    <connection from="xedge_03x17" fromLane="0" to="xedge_03x15" toLane="0" />
    <connection from="xedge_03x17" fromLane="0" to="yedge_08x06" toLane="0" />

    <connection from="xedge_03x18" fromLane="0" to="yedge_10x06" toLane="0" />
    <connection from="xedge_03x18" fromLane="0" to="xedge_03x20" toLane="0" />