<?xml version='1.0' encoding='UTF-8'?>
<edges xmlns:xsi="http://www.w3.org/2001/XMLSchema-instance" version="0.27" xsi:noNamespaceSchemaLocation="http://sumo.dlr.de/xsd/edges_file.xsd"><edge disallow="tram rail_urban rail rail_electric ship" dump_speed="2.5" from="node_242" id="yedge_11x22" len="100.0" numLanes="1" priority="5" slowdown="11.39" slowdown_ratio="0.820014398848" speed="13.89" to="node_263" type="highway.undefined" />
    <edge disallow="tram rail_urban rail rail_electric ship" dump_speed="3.28" from="node_220" id="xedge_10x19" len="100.0" numLanes="1" priority="5" slowdown="10.61" slowdown_ratio="0.763858891289" speed="13.89" to="node_219" type="highway.undefined" />
    <edge disallow="tram rail_urban rail rail_electric ship" dump_speed="3.39" from="node_197" id="yedge_08x18" len="100.0" numLanes="1" priority="5" slowdown="10.5" slowdown_ratio="0.755939524838" speed="13.89" to="node_218" type="highway.undefined" />
    <edge disallow="tram rail_urban rail rail_electric ship" dump_speed="3.48" from="node_243" id="xedge_11x23" len="100.0" numLanes="1" priority="5" slowdown="10.41" slowdown_ratio="0.749460043197" speed="13.89" to="node_242" type="highway.undefined" />
    <edge disallow="tram rail_urban rail rail_electric ship" dump_speed="3.56" from="node_219" id="xedge_10x17" len="100.0" numLanes="1" priority="5" slowdown="10.33" slowdown_ratio="0.74370050396" speed="13.89" to="node_218" type="highway.undefined" />
    <edge disallow="tram rail_urban rail rail_electric ship" dump_speed="3.63" from="node_155" id="yedge_08x14" len="100.0" numLanes="1" priority="5" slowdown="10.26" slowdown_ratio="0.738660907127" speed="13.89" to="node_176" type="highway.undefined" />
    <edge disallow="tram rail_urban rail rail_electric ship" dump_speed="3.64" from="node_261" id="xedge_12x18" len="100.0" numLanes="1" priority="5" slowdown="10.25" slowdown_ratio="0.737940964723" speed="13.89" to="node_262" type="highway.undefined" />
    <edge disallow="tram rail_urban rail rail_electric ship" dump_speed="3.68" from="node_264" id="yedge_12x23" len="100.0" numLanes="1" priority="5" slowdown="10.21" slowdown_ratio="0.735061195104" speed="13.89" to="node_243" type="highway.undefined" />
    <edge disallow="tram rail_urban rail rail_electric ship" dump_speed="3.75" from="node_262" id="xedge_12x20" len="100.0" numLanes="1" priority="5" slowdown="10.14" slowdown_ratio="0.730021598272" speed="13.89" to="node_263" type="highway.undefined" />
    <edge disallow="tram rail_urban rail rail_electric ship" dump_speed="3.76" from="node_218" id="yedge_08x20" len="100.0" numLanes="1" priority="5" slowdown="10.13" slowdown_ratio="0.729301655868" speed="13.89" to="node_239" type="highway.undefined" />
    <edge disallow="tram rail_urban rail rail_electric ship" dump_speed="3.81" from="node_240" id="yedge_09x21" len="100.0" numLanes="1" priority="5" slowdown="10.08" slowdown_ratio="0.725701943844" speed="13.89" to="node_219" type="highway.undefined" />
    <edge disallow="tram rail_urban rail rail_electric ship" dump_speed="3.82" from="node_239" id="yedge_08x22" len="100.0" numLanes="1" priority="5" slowdown="10.07" slowdown_ratio="0.72498200144" speed="13.89" to="node_260" type="highway.undefined" />
    <edge disallow="tram rail_urban rail rail_electric ship" dump_speed="3.85" from="node_262" id="yedge_10x23" len="100.0" numLanes="1" priority="5" slowdown="10.04" slowdown_ratio="0.722822174226" speed="13.89" to="node_241" type="highway.undefined" />
    <edge disallow="tram rail_urban rail rail_electric ship" dump_speed="3.93" from="node_221" id="yedge_11x20" len="100.0" numLanes="1" priority="5" slowdown="9.96" slowdown_ratio="0.717062634989" speed="13.89" to="node_242" type="highway.undefined" />
    <edge disallow="tram rail_urban rail rail_electric ship" dump_speed="3.94" from="node_221" id="xedge_10x21" len="100.0" numLanes="1" priority="5" slowdown="9.95" slowdown_ratio="0.716342692585" speed="13.89" to="node_220" type="highway.undefined" />
    <edge disallow="tram rail_urban rail rail_electric ship" dump_speed="3.94" from="node_263" id="xedge_12x21" len="100.0" numLanes="1" priority="5" slowdown="9.95" slowdown_ratio="0.716342692585" speed="13.89" to="node_262" type="highway.undefined" />
    <edge disallow="tram rail_urban rail rail_electric ship" dump_speed="3.96" from="node_176" id="yedge_08x16" len="100.0" numLanes="1" priority="5" slowdown="9.93" slowdown_ratio="0.714902807775" speed="13.89" to="node_197" type="highway.undefined" />
    <edge disallow="tram rail_urban rail rail_electric ship" dump_speed="4.05" from="node_181" id="yedge_13x15" len="100.0" numLanes="1" priority="5" slowdown="9.84" slowdown_ratio="0.708423326134" speed="13.89" to="node_160" type="highway.undefined" />
    <edge disallow="tram rail_urban rail rail_electric ship" dump_speed="4.09" from="node_263" id="yedge_11x24" len="100.0" numLanes="1" priority="5" slowdown="9.8" slowdown_ratio="0.705543556515" speed="13.89" to="node_284" type="highway.undefined" />
    <edge disallow="tram rail_urban rail rail_electric ship" dump_speed="4.11" from="node_283" id="yedge_10x25" len="100.0" numLanes="1" priority="5" slowdown="9.78" slowdown_ratio="0.704103671706" speed="13.89" to="node_262" type="highway.undefined" />
    <edge disallow="tram rail_urban rail rail_electric ship" dump_speed="4.15" from="node_217" id="xedge_10x14" len="100.0" numLanes="1" priority="5" slowdown="9.74" slowdown_ratio="0.701223902088" speed="13.89" to="node_218" type="highway.undefined" />
    <edge disallow="tram rail_urban rail rail_electric ship" dump_speed="4.17" from="node_285" id="yedge_12x25" len="100.0" numLanes="1" priority="5" slowdown="9.72" slowdown_ratio="0.699784017279" speed="13.89" to="node_264" type="highway.undefined" />
    <edge disallow="tram rail_urban rail rail_electric ship" dump_speed="4.19" from="node_137" id="xedge_06x22" len="100.0" numLanes="1" priority="5" slowdown="9.7" slowdown_ratio="0.698344132469" speed="13.89" to="node_138" type="highway.undefined" />
    <edge disallow="tram rail_urban rail rail_electric ship" dump_speed="4.21" from="node_241" id="xedge_11x19" len="100.0" numLanes="1" priority="5" slowdown="9.68" slowdown_ratio="0.69690424766" speed="13.89" to="node_240" type="highway.undefined" />
    <edge disallow="tram rail_urban rail rail_electric ship" dump_speed="4.21" from="node_241" id="yedge_10x22" len="100.0" numLanes="1" priority="5" slowdown="9.68" slowdown_ratio="0.69690424766" speed="13.89" to="node_262" type="highway.undefined" />
    <edge disallow="tram rail_urban rail rail_electric ship" dump_speed="4.27" from="node_157" id="xedge_07x19" len="100.0" numLanes="1" priority="5" slowdown="9.62" slowdown_ratio="0.692584593233" speed="13.89" to="node_156" type="highway.undefined" />
    <edge disallow="tram rail_urban rail rail_electric ship" dump_speed="4.29" from="node_177" id="yedge_09x15" len="100.0" numLanes="1" priority="5" slowdown="9.6" slowdown_ratio="0.691144708423" speed="13.89" to="node_156" type="highway.undefined" />
    <edge disallow="tram rail_urban rail rail_electric ship" dump_speed="4.31" from="node_262" id="xedge_12x19" len="100.0" numLanes="1" priority="5" slowdown="9.58" slowdown_ratio="0.689704823614" speed="13.89" to="node_261" type="highway.undefined" />
    <edge disallow="tram rail_urban rail rail_electric ship" dump_speed="4.32" from="node_238" id="yedge_07x21" len="100.0" numLanes="1" priority="5" slowdown="9.57" slowdown_ratio="0.68898488121" speed="13.89" to="node_217" type="highway.undefined" />
    <edge disallow="tram rail_urban rail rail_electric ship" dump_speed="4.34" from="node_261" id="yedge_09x23" len="100.0" numLanes="1" priority="5" slowdown="9.55" slowdown_ratio="0.6875449964" speed="13.89" to="node_240" type="highway.undefined" />
    <edge disallow="tram rail_urban rail rail_electric ship" dump_speed="4.37" from="node_196" id="yedge_07x17" len="100.0" numLanes="1" priority="5" slowdown="9.52" slowdown_ratio="0.685385169186" speed="13.89" to="node_175" type="highway.undefined" />
    <edge disallow="tram rail_urban rail rail_electric ship" dump_speed="4.38" from="node_156" id="xedge_07x17" len="100.0" numLanes="1" priority="5" slowdown="9.51" slowdown_ratio="0.684665226782" speed="13.89" to="node_155" type="highway.undefined" />
    <edge disallow="tram rail_urban rail rail_electric ship" dump_speed="4.41" from="node_218" id="xedge_10x15" len="100.0" numLanes="1" priority="5" slowdown="9.48" slowdown_ratio="0.682505399568" speed="13.89" to="node_217" type="highway.undefined" />
    <edge disallow="tram rail_urban rail rail_electric ship" dump_speed="4.46" from="node_260" id="xedge_12x16" len="100.0" numLanes="1" priority="5" slowdown="9.43" slowdown_ratio="0.678905687545" speed="13.89" to="node_261" type="highway.undefined" />
    <edge disallow="tram rail_urban rail rail_electric ship" dump_speed="4.47" from="node_176" id="xedge_08x15" len="100.0" numLanes="1" priority="5" slowdown="9.42" slowdown_ratio="0.67818574514" speed="13.89" to="node_175" type="highway.undefined" />
    <edge disallow="tram rail_urban rail rail_electric ship" dump_speed="4.49" from="node_241" id="yedge_10x21" len="100.0" numLanes="1" priority="5" slowdown="9.4" slowdown_ratio="0.676745860331" speed="13.89" to="node_220" type="highway.undefined" />
    <edge disallow="tram rail_urban rail rail_electric ship" dump_speed="4.51" from="node_282" id="xedge_13x18" len="100.0" numLanes="1" priority="5" slowdown="9.38" slowdown_ratio="0.675305975522" speed="13.89" to="node_283" type="highway.undefined" />
    <edge disallow="tram rail_urban rail rail_electric ship" dump_speed="4.51" from="node_304" id="yedge_10x27" len="100.0" numLanes="1" priority="5" slowdown="9.38" slowdown_ratio="0.675305975522" speed="13.89" to="node_283" type="highway.undefined" />
    <edge disallow="tram rail_urban rail rail_electric ship" dump_speed="4.56" from="node_134" id="yedge_08x12" len="100.0" numLanes="1" priority="5" slowdown="9.33" slowdown_ratio="0.671706263499" speed="13.89" to="node_155" type="highway.undefined" />
    <edge disallow="tram rail_urban rail rail_electric ship" dump_speed="4.61" from="node_201" id="yedge_12x18" len="100.0" numLanes="1" priority="5" slowdown="9.28" slowdown_ratio="0.668106551476" speed="13.89" to="node_222" type="highway.undefined" />
    <edge disallow="tram rail_urban rail rail_electric ship" dump_speed="4.62" from="node_242" id="xedge_11x22" len="100.0" numLanes="1" priority="5" slowdown="9.27" slowdown_ratio="0.667386609071" speed="13.89" to="node_243" type="highway.undefined" />
    <edge disallow="tram rail_urban rail rail_electric ship" dump_speed="4.65" from="node_220" id="xedge_10x20" len="100.0" numLanes="1" priority="5" slowdown="9.24" slowdown_ratio="0.665226781857" speed="13.89" to="node_221" type="highway.undefined" />
    <edge disallow="tram rail_urban rail rail_electric ship" dump_speed="4.65" from="node_179" id="yedge_11x15" len="100.0" numLanes="1" priority="5" slowdown="9.24" slowdown_ratio="0.665226781857" speed="13.89" to="node_158" type="highway.undefined" />
    <edge disallow="tram rail_urban rail rail_electric ship" dump_speed="4.69" from="node_263" id="xedge_12x22" len="100.0" numLanes="1" priority="5" slowdown="9.2" slowdown_ratio="0.662347012239" speed="13.89" to="node_264" type="highway.undefined" />
    <edge disallow="tram rail_urban rail rail_electric ship" dump_speed="4.7" from="node_261" id="yedge_09x24" len="100.0" numLanes="1" priority="5" slowdown="9.19" slowdown_ratio="0.661627069834" speed="13.89" to="node_282" type="highway.undefined" />
    <edge disallow="tram rail_urban rail rail_electric ship" dump_speed="4.73" from="node_244" id="xedge_11x25" len="100.0" numLanes="1" priority="5" slowdown="9.16" slowdown_ratio="0.659467242621" speed="13.89" to="node_243" type="highway.undefined" />
    <edge disallow="tram rail_urban rail rail_electric ship" dump_speed="4.74" from="node_200" id="yedge_11x18" len="100.0" numLanes="1" priority="5" slowdown="9.15" slowdown_ratio="0.658747300216" speed="13.89" to="node_221" type="highway.undefined" />
    <edge disallow="tram rail_urban rail rail_electric ship" dump_speed="4.77" from="node_175" id="yedge_07x16" len="100.0" numLanes="1" priority="5" slowdown="9.12" slowdown_ratio="0.656587473002" speed="13.89" to="node_196" type="highway.undefined" />
    <edge disallow="tram rail_urban rail rail_electric ship" dump_speed="4.79" from="node_158" id="yedge_11x14" len="100.0" numLanes="1" priority="5" slowdown="9.1" slowdown_ratio="0.655147588193" speed="13.89" to="node_179" type="highway.undefined" />
    <edge disallow="tram rail_urban rail rail_electric ship" dump_speed="4.8" from="node_264" id="xedge_12x23" len="100.0" numLanes="1" priority="5" slowdown="9.09" slowdown_ratio="0.654427645788" speed="13.89" to="node_263" type="highway.undefined" />
    <edge disallow="tram rail_urban rail rail_electric ship" dump_speed="4.81" from="node_198" id="xedge_09x17" len="100.0" numLanes="1" priority="5" slowdown="9.08" slowdown_ratio="0.653707703384" speed="13.89" to="node_197" type="highway.undefined" />
    <edge disallow="tram rail_urban rail rail_electric ship" dump_speed="4.83" from="node_195" id="xedge_09x12" len="100.0" numLanes="1" priority="5" slowdown="9.06" slowdown_ratio="0.652267818575" speed="13.89" to="node_196" type="highway.undefined" />
    <edge disallow="tram rail_urban rail rail_electric ship" dump_speed="4.85" from="node_178" id="yedge_10x15" len="100.0" numLanes="1" priority="5" slowdown="9.04" slowdown_ratio="0.650827933765" speed="13.89" to="node_157" type="highway.undefined" />
    <edge disallow="tram rail_urban rail rail_electric ship" dump_speed="4.94" from="node_198" id="xedge_09x18" len="100.0" numLanes="1" priority="5" slowdown="8.95" slowdown_ratio="0.644348452124" speed="13.89" to="node_199" type="highway.undefined" />
    <edge disallow="tram rail_urban rail rail_electric ship" dump_speed="4.94" from="node_283" id="xedge_13x20" len="100.0" numLanes="1" priority="5" slowdown="8.95" slowdown_ratio="0.644348452124" speed="13.89" to="node_284" type="highway.undefined" />
    <edge disallow="tram rail_urban rail rail_electric ship" dump_speed="4.94" from="node_158" id="yedge_11x13" len="100.0" numLanes="1" priority="5" slowdown="8.95" slowdown_ratio="0.644348452124" speed="13.89" to="node_137" type="highway.undefined" />
    <edge disallow="tram rail_urban rail rail_electric ship" dump_speed="4.96" from="node_221" id="xedge_10x22" len="100.0" numLanes="1" priority="5" slowdown="8.93" slowdown_ratio="0.642908567315" speed="13.89" to="node_222" type="highway.undefined" />
    <edge disallow="tram rail_urban rail rail_electric ship" dump_speed="4.97" from="node_284" id="yedge_11x25" len="100.0" numLanes="1" priority="5" slowdown="8.92" slowdown_ratio="0.64218862491" speed="13.89" to="node_263" type="highway.undefined" />
    <edge disallow="tram rail_urban rail rail_electric ship" dump_speed="5.0" from="node_138" id="xedge_06x24" len="100.0" numLanes="1" priority="5" slowdown="8.89" slowdown_ratio="0.640028797696" speed="13.89" to="node_139" type="highway.undefined" />
    <edge disallow="tram rail_urban rail rail_electric ship" dump_speed="5.0" from="node_242" id="xedge_11x21" len="100.0" numLanes="1" priority="5" slowdown="8.89" slowdown_ratio="0.640028797696" speed="13.89" to="node_241" type="highway.undefined" />
    <edge disallow="tram rail_urban rail rail_electric ship" dump_speed="5.01" from="node_239" id="yedge_08x21" len="100.0" numLanes="1" priority="5" slowdown="8.88" slowdown_ratio="0.639308855292" speed="13.89" to="node_218" type="highway.undefined" />
    <edge disallow="tram rail_urban rail rail_electric ship" dump_speed="5.04" from="node_157" id="yedge_10x14" len="100.0" numLanes="1" priority="5" slowdown="8.85" slowdown_ratio="0.637149028078" speed="13.89" to="node_178" type="highway.undefined" />
    <edge disallow="tram rail_urban rail rail_electric ship" dump_speed="5.05" from="node_159" id="xedge_07x23" len="100.0" numLanes="1" priority="5" slowdown="8.84" slowdown_ratio="0.636429085673" speed="13.89" to="node_158" type="highway.undefined" />
    <edge disallow="tram rail_urban rail rail_electric ship" dump_speed="5.09" from="node_239" id="xedge_11x15" len="100.0" numLanes="1" priority="5" slowdown="8.8" slowdown_ratio="0.633549316055" speed="13.89" to="node_238" type="highway.undefined" />
    <edge disallow="tram rail_urban rail rail_electric ship" dump_speed="5.11" from="node_196" id="xedge_09x14" len="100.0" numLanes="1" priority="5" slowdown="8.78" slowdown_ratio="0.632109431246" speed="13.89" to="node_197" type="highway.undefined" />
    <edge disallow="tram rail_urban rail rail_electric ship" dump_speed="5.11" from="node_216" id="xedge_10x12" len="100.0" numLanes="1" priority="5" slowdown="8.78" slowdown_ratio="0.632109431246" speed="13.89" to="node_217" type="highway.undefined" />
    <edge disallow="tram rail_urban rail rail_electric ship" dump_speed="5.12" from="node_222" id="xedge_10x24" len="100.0" numLanes="1" priority="5" slowdown="8.77" slowdown_ratio="0.631389488841" speed="13.89" to="node_223" type="highway.undefined" />
    <edge disallow="tram rail_urban rail rail_electric ship" dump_speed="5.12" from="node_240" id="xedge_11x18" len="100.0" numLanes="1" priority="5" slowdown="8.77" slowdown_ratio="0.631389488841" speed="13.89" to="node_241" type="highway.undefined" />
    <edge disallow="tram rail_urban rail rail_electric ship" dump_speed="5.13" from="node_238" id="xedge_11x14" len="100.0" numLanes="1" priority="5" slowdown="8.76" slowdown_ratio="0.630669546436" speed="13.89" to="node_239" type="highway.undefined" />
    <edge disallow="tram rail_urban rail rail_electric ship" dump_speed="5.13" from="node_202" id="yedge_13x17" len="100.0" numLanes="1" priority="5" slowdown="8.76" slowdown_ratio="0.630669546436" speed="13.89" to="node_181" type="highway.undefined" />
    <edge disallow="tram rail_urban rail rail_electric ship" dump_speed="5.16" from="node_243" id="yedge_12x22" len="100.0" numLanes="1" priority="5" slowdown="8.73" slowdown_ratio="0.628509719222" speed="13.89" to="node_264" type="highway.undefined" />
    <edge disallow="tram rail_urban rail rail_electric ship" dump_speed="5.17" from="node_178" id="yedge_10x16" len="100.0" numLanes="1" priority="5" slowdown="8.72" slowdown_ratio="0.627789776818" speed="13.89" to="node_199" type="highway.undefined" />
    <edge disallow="tram rail_urban rail rail_electric ship" dump_speed="5.19" from="node_136" id="xedge_06x20" len="100.0" numLanes="1" priority="5" slowdown="8.7" slowdown_ratio="0.626349892009" speed="13.89" to="node_137" type="highway.undefined" />
    <edge disallow="tram rail_urban rail rail_electric ship" dump_speed="5.21" from="node_304" id="yedge_10x28" len="100.0" numLanes="1" priority="5" slowdown="8.68" slowdown_ratio="0.624910007199" speed="13.89" to="node_325" type="highway.undefined" />
    <edge disallow="tram rail_urban rail rail_electric ship" dump_speed="5.22" from="node_284" id="yedge_11x26" len="100.0" numLanes="1" priority="5" slowdown="8.67" slowdown_ratio="0.624190064795" speed="13.89" to="node_305" type="highway.undefined" />
    <edge disallow="tram rail_urban rail rail_electric ship" dump_speed="5.23" from="node_259" id="xedge_12x14" len="100.0" numLanes="1" priority="5" slowdown="8.66" slowdown_ratio="0.62347012239" speed="13.89" to="node_260" type="highway.undefined" />
    <edge disallow="tram rail_urban rail rail_electric ship" dump_speed="5.24" from="node_259" id="yedge_07x24" len="100.0" numLanes="1" priority="5" slowdown="8.65" slowdown_ratio="0.622750179986" speed="13.89" to="node_280" type="highway.undefined" />
    <edge disallow="tram rail_urban rail rail_electric ship" dump_speed="5.25" from="node_216" id="xedge_10x11" len="100.0" numLanes="1" priority="5" slowdown="8.64" slowdown_ratio="0.622030237581" speed="13.89" to="node_215" type="highway.undefined" />
    <edge disallow="tram rail_urban rail rail_electric ship" dump_speed="5.25" from="node_280" id="yedge_07x26" len="100.0" numLanes="1" priority="5" slowdown="8.64" slowdown_ratio="0.622030237581" speed="13.89" to="node_301" type="highway.undefined" />
    <edge disallow="tram rail_urban rail rail_electric ship" dump_speed="5.26" from="node_325" id="yedge_10x29" len="100.0" numLanes="1" priority="5" slowdown="8.63" slowdown_ratio="0.621310295176" speed="13.89" to="node_304" type="highway.undefined" />
    <edge disallow="tram rail_urban rail rail_electric ship" dump_speed="5.3" from="node_348" id="xedge_16x23" len="100.0" numLanes="1" priority="5" slowdown="8.59" slowdown_ratio="0.618430525558" speed="13.89" to="node_347" type="highway.undefined" />
    <edge disallow="tram rail_urban rail rail_electric ship" dump_speed="5.33" from="node_236" id="xedge_11x09" len="100.0" numLanes="1" priority="5" slowdown="8.56" slowdown_ratio="0.616270698344" speed="13.89" to="node_235" type="highway.undefined" />
    <edge disallow="tram rail_urban rail rail_electric ship" dump_speed="5.34" from="node_241" id="xedge_11x20" len="100.0" numLanes="1" priority="5" slowdown="8.55" slowdown_ratio="0.61555075594" speed="13.89" to="node_242" type="highway.undefined" />
    <edge disallow="tram rail_urban rail rail_electric ship" dump_speed="5.34" from="node_179" id="yedge_11x16" len="100.0" numLanes="1" priority="5" slowdown="8.55" slowdown_ratio="0.61555075594" speed="13.89" to="node_200" type="highway.undefined" />
    <edge disallow="tram rail_urban rail rail_electric ship" dump_speed="5.35" from="node_180" id="xedge_08x24" len="100.0" numLanes="1" priority="5" slowdown="8.54" slowdown_ratio="0.614830813535" speed="13.89" to="node_181" type="highway.undefined" />
    <edge disallow="tram rail_urban rail rail_electric ship" dump_speed="5.36" from="node_199" id="xedge_09x19" len="100.0" numLanes="1" priority="5" slowdown="8.53" slowdown_ratio="0.61411087113" speed="13.89" to="node_198" type="highway.undefined" />
    <edge disallow="tram rail_urban rail rail_electric ship" dump_speed="5.36" from="node_263" id="yedge_11x23" len="100.0" numLanes="1" priority="5" slowdown="8.53" slowdown_ratio="0.61411087113" speed="13.89" to="node_242" type="highway.undefined" />
    <edge disallow="tram rail_urban rail rail_electric ship" dump_speed="5.37" from="node_179" id="xedge_08x22" len="100.0" numLanes="1" priority="5" slowdown="8.52" slowdown_ratio="0.613390928726" speed="13.89" to="node_180" type="highway.undefined" />
    <edge disallow="tram rail_urban rail rail_electric ship" dump_speed="5.37" from="node_289" id="xedge_13x31" len="100.0" numLanes="1" priority="5" slowdown="8.52" slowdown_ratio="0.613390928726" speed="13.89" to="node_288" type="highway.undefined" />
    <edge disallow="tram rail_urban rail rail_electric ship" dump_speed="5.39" from="node_326" id="xedge_15x22" len="100.0" numLanes="1" priority="5" slowdown="8.5" slowdown_ratio="0.611951043916" speed="13.89" to="node_327" type="highway.undefined" />
    <edge disallow="tram rail_urban rail rail_electric ship" dump_speed="5.39" from="node_240" id="yedge_09x22" len="100.0" numLanes="1" priority="5" slowdown="8.5" slowdown_ratio="0.611951043916" speed="13.89" to="node_261" type="highway.undefined" />
    <edge disallow="tram rail_urban rail rail_electric ship" dump_speed="5.39" from="node_221" id="yedge_11x19" len="100.0" numLanes="1" priority="5" slowdown="8.5" slowdown_ratio="0.611951043916" speed="13.89" to="node_200" type="highway.undefined" />
    <edge disallow="tram rail_urban rail rail_electric ship" dump_speed="5.41" from="node_265" id="yedge_13x23" len="100.0" numLanes="1" priority="5" slowdown="8.48" slowdown_ratio="0.610511159107" speed="13.89" to="node_244" type="highway.undefined" />
    <edge disallow="tram rail_urban rail rail_electric ship" dump_speed="5.42" from="node_158" id="xedge_07x21" len="100.0" numLanes="1" priority="5" slowdown="8.47" slowdown_ratio="0.609791216703" speed="13.89" to="node_157" type="highway.undefined" />
    <edge disallow="tram rail_urban rail rail_electric ship" dump_speed="5.43" from="node_178" id="xedge_08x19" len="100.0" numLanes="1" priority="5" slowdown="8.46" slowdown_ratio="0.609071274298" speed="13.89" to="node_177" type="highway.undefined" />
    <edge disallow="tram rail_urban rail rail_electric ship" dump_speed="5.44" from="node_177" id="yedge_09x16" len="100.0" numLanes="1" priority="5" slowdown="8.45" slowdown_ratio="0.608351331893" speed="13.89" to="node_198" type="highway.undefined" />
    <edge disallow="tram rail_urban rail rail_electric ship" dump_speed="5.45" from="node_245" id="xedge_11x27" len="100.0" numLanes="1" priority="5" slowdown="8.44" slowdown_ratio="0.607631389489" speed="13.89" to="node_244" type="highway.undefined" />
    <edge disallow="tram rail_urban rail rail_electric ship" dump_speed="5.47" from="node_202" id="xedge_09x25" len="100.0" numLanes="1" priority="5" slowdown="8.42" slowdown_ratio="0.60619150468" speed="13.89" to="node_201" type="highway.undefined" />
    <edge disallow="tram rail_urban rail rail_electric ship" dump_speed="5.48" from="node_222" id="xedge_10x23" len="100.0" numLanes="1" priority="5" slowdown="8.41" slowdown_ratio="0.605471562275" speed="13.89" to="node_221" type="highway.undefined" />
    <edge disallow="tram rail_urban rail rail_electric ship" dump_speed="5.51" from="node_196" id="yedge_07x18" len="100.0" numLanes="1" priority="5" slowdown="8.38" slowdown_ratio="0.603311735061" speed="13.89" to="node_217" type="highway.undefined" />
    <edge disallow="tram rail_urban rail rail_electric ship" dump_speed="5.52" from="node_285" id="yedge_12x26" len="100.0" numLanes="1" priority="5" slowdown="8.37" slowdown_ratio="0.602591792657" speed="13.89" to="node_306" type="highway.undefined" />
    <edge disallow="tram rail_urban rail rail_electric ship" dump_speed="5.54" from="node_177" id="xedge_08x18" len="100.0" numLanes="1" priority="5" slowdown="8.35" slowdown_ratio="0.601151907847" speed="13.89" to="node_178" type="highway.undefined" />
    <edge disallow="tram rail_urban rail rail_electric ship" dump_speed="5.54" from="node_179" id="xedge_08x21" len="100.0" numLanes="1" priority="5" slowdown="8.35" slowdown_ratio="0.601151907847" speed="13.89" to="node_178" type="highway.undefined" />
    <edge disallow="tram rail_urban rail rail_electric ship" dump_speed="5.54" from="node_216" id="yedge_06x20" len="100.0" numLanes="1" priority="5" slowdown="8.35" slowdown_ratio="0.601151907847" speed="13.89" to="node_237" type="highway.undefined" />
    <edge disallow="tram rail_urban rail rail_electric ship" dump_speed="5.54" from="node_198" id="yedge_09x17" len="100.0" numLanes="1" priority="5" slowdown="8.35" slowdown_ratio="0.601151907847" speed="13.89" to="node_177" type="highway.undefined" />
    <edge disallow="tram rail_urban rail rail_electric ship" dump_speed="5.55" from="node_160" id="yedge_13x13" len="100.0" numLanes="1" priority="5" slowdown="8.34" slowdown_ratio="0.600431965443" speed="13.89" to="node_139" type="highway.undefined" />
    <edge disallow="tram rail_urban rail rail_electric ship" dump_speed="5.56" from="node_160" id="xedge_07x25" len="100.0" numLanes="1" priority="5" slowdown="8.33" slowdown_ratio="0.599712023038" speed="13.89" to="node_159" type="highway.undefined" />
    <edge disallow="tram rail_urban rail rail_electric ship" dump_speed="5.56" from="node_236" id="xedge_11x10" len="100.0" numLanes="1" priority="5" slowdown="8.33" slowdown_ratio="0.599712023038" speed="13.89" to="node_237" type="highway.undefined" />
    <edge disallow="tram rail_urban rail rail_electric ship" dump_speed="5.57" from="node_285" id="xedge_13x24" len="100.0" numLanes="1" priority="5" slowdown="8.32" slowdown_ratio="0.598992080634" speed="13.89" to="node_286" type="highway.undefined" />
    <edge disallow="tram rail_urban rail rail_electric ship" dump_speed="5.57" from="node_242" id="yedge_11x21" len="100.0" numLanes="1" priority="5" slowdown="8.32" slowdown_ratio="0.598992080634" speed="13.89" to="node_221" type="highway.undefined" />
    <edge disallow="tram rail_urban rail rail_electric ship" dump_speed="5.58" from="node_177" id="xedge_08x17" len="100.0" numLanes="1" priority="5" slowdown="8.31" slowdown_ratio="0.598272138229" speed="13.89" to="node_176" type="highway.undefined" />
    <edge disallow="tram rail_urban rail rail_electric ship" dump_speed="5.59" from="node_262" id="yedge_10x24" len="100.0" numLanes="1" priority="5" slowdown="8.3" slowdown_ratio="0.597552195824" speed="13.89" to="node_283" type="highway.undefined" />
    <edge disallow="tram rail_urban rail rail_electric ship" dump_speed="5.6" from="node_327" id="xedge_15x23" len="100.0" numLanes="1" priority="5" slowdown="8.29" slowdown_ratio="0.59683225342" speed="13.89" to="node_326" type="highway.undefined" />
    <edge disallow="tram rail_urban rail rail_electric ship" dump_speed="5.62" from="node_303" id="xedge_14x18" len="100.0" numLanes="1" priority="5" slowdown="8.27" slowdown_ratio="0.595392368611" speed="13.89" to="node_304" type="highway.undefined" />
    <edge disallow="tram rail_urban rail rail_electric ship" dump_speed="5.64" from="node_160" id="yedge_13x14" len="100.0" numLanes="1" priority="5" slowdown="8.25" slowdown_ratio="0.593952483801" speed="13.89" to="node_181" type="highway.undefined" />
    <edge disallow="tram rail_urban rail rail_electric ship" dump_speed="5.64" from="node_244" id="yedge_13x21" len="100.0" numLanes="1" priority="5" slowdown="8.25" slowdown_ratio="0.593952483801" speed="13.89" to="node_223" type="highway.undefined" />
    <edge disallow="tram rail_urban rail rail_electric ship" dump_speed="5.65" from="node_161" id="xedge_07x27" len="100.0" numLanes="1" priority="5" slowdown="8.24" slowdown_ratio="0.593232541397" speed="13.89" to="node_160" type="highway.undefined" />