<?xml version="1.0" encoding="UTF-8"?>

<!-- generated on 02/15/17 17:55:15 by SUMO netconvert Version 0.27.1
<?xml version="1.0" encoding="UTF-8"?>

<configuration xmlns:xsi="http://www.w3.org/2001/XMLSchema-instance" xsi:noNamespaceSchemaLocation="http://sumo.dlr.de/xsd/netconvertConfiguration.xsd">

    <input>
        <node-files value="C:\Users\zs633\capstone\10_spherical\test_random3\7_displaced\spherical.nod.xml"/>
        <edge-files value="C:\Users\zs633\capstone\10_spherical\test_random3\7_displaced\spherical.edg.xml"/>
        <connection-files value="C:\Users\zs633\capstone\10_spherical\test_random3\4_plain\test.con.xml"/>
        <tllogic-files value="C:\Users\zs633\capstone\10_spherical\test_random3\4_plain\test.tll.xml"/>
    </input>

    <output>
        <output-file value="C:\Users\zs633\capstone\10_spherical\test_random3\9_output_net\spherical.net.xml"/>
    </output>

    <processing>
        <ignore-errors value="true"/>
        <ignore-errors.edge-type value="true"/>
    </processing>

    <report>
        <verbose value="true"/>
        <xml-validation value="never"/>
        <no-warnings value="true"/>
    </report>

</configuration>
-->

<net version="0.27" xmlns:xsi="http://www.w3.org/2001/XMLSchema-instance" xsi:noNamespaceSchemaLocation="http://sumo.dlr.de/xsd/net_file.xsd">

    <location netOffset="0.00,0.00" convBoundary="0.00,0.00,2000.00,2000.00" origBoundary="0.00,0.00,2000.00,2000.00" projParameter="!"/>

    <edge id=":node_00x00_0" function="internal">
        <lane id=":node_00x00_0_0" index="0" disallow="tram rail_urban rail rail_electric ship" speed="13.89" length="4.82" shape="-1.65,0.00 -0.83,-1.24 0.00,-1.65 0.83,-1.24 1.65,0.00"/>
    </edge>
    <edge id=":node_00x01_0" function="internal">
        <lane id=":node_00x01_0_0" index="0" disallow="tram rail_urban rail rail_electric ship" speed="13.89" length="0.10" shape="-1.65,100.00 -1.65,100.00"/>
    </edge>
    <edge id=":node_00x01_1" function="internal">
        <lane id=":node_00x01_1_0" index="0" disallow="tram rail_urban rail rail_electric ship" speed="13.89" length="0.10" shape="1.65,100.00 1.65,100.00"/>
    </edge>
    <edge id=":node_00x02_0" function="internal">
        <lane id=":node_00x02_0_0" index="0" disallow="tram rail_urban rail rail_electric ship" speed="13.89" length="9.50" shape="-1.65,204.75 -1.65,195.25"/>
    </edge>
    <edge id=":node_00x02_1" function="internal">
        <lane id=":node_00x02_1_0" index="0" disallow="tram rail_urban rail rail_electric ship" speed="13.89" length="10.32" shape="-1.65,204.75 -1.25,201.95 -0.05,199.95 1.95,198.75 4.75,198.35"/>
    </edge>
    <edge id=":node_00x02_2" function="internal">
        <lane id=":node_00x02_2_0" index="0" disallow="tram rail_urban rail rail_electric ship" speed="13.89" length="5.00" shape="4.75,201.65 3.39,201.84 2.43,202.43 1.84,203.39 1.65,204.75"/>
    </edge>
    <edge id=":node_00x02_3" function="internal">
        <lane id=":node_00x02_3_0" index="0" disallow="tram rail_urban rail rail_electric ship" speed="13.89" length="10.32" shape="4.75,201.65 1.95,201.25 -0.05,200.05 -1.25,198.05 -1.65,195.25"/>
    </edge>
    <edge id=":node_00x02_4" function="internal">
        <lane id=":node_00x02_4_0" index="0" disallow="tram rail_urban rail rail_electric ship" speed="13.89" length="5.00" shape="1.65,195.25 1.84,196.61 2.43,197.58 3.39,198.16 4.75,198.35"/>
    </edge>
    <edge id=":node_00x02_5" function="internal">
        <lane id=":node_00x02_5_0" index="0" disallow="tram rail_urban rail rail_electric ship" speed="13.89" length="9.50" shape="1.65,195.25 1.65,204.75"/>
    </edge>
    <edge id=":node_00x03_0" function="internal">
        <lane id=":node_00x03_0_0" index="0" disallow="tram rail_urban rail rail_electric ship" speed="13.89" length="9.50" shape="-1.65,304.75 -1.65,295.25"/>
    </edge>
    <edge id=":node_00x03_1" function="internal">
        <lane id=":node_00x03_1_0" index="0" disallow="tram rail_urban rail rail_electric ship" speed="13.89" length="10.32" shape="-1.65,304.75 -1.25,301.95 -0.05,299.95 1.95,298.75 4.75,298.35"/>
    </edge>
    <edge id=":node_00x03_2" function="internal">
        <lane id=":node_00x03_2_0" index="0" disallow="tram rail_urban rail rail_electric ship" speed="13.89" length="5.00" shape="4.75,301.65 3.39,301.84 2.43,302.42 1.84,303.39 1.65,304.75"/>
    </edge>
    <edge id=":node_00x03_3" function="internal">
        <lane id=":node_00x03_3_0" index="0" disallow="tram rail_urban rail rail_electric ship" speed="13.89" length="10.32" shape="4.75,301.65 1.95,301.25 -0.05,300.05 -1.25,298.05 -1.65,295.25"/>
    </edge>
    <edge id=":node_00x03_4" function="internal">
        <lane id=":node_00x03_4_0" index="0" disallow="tram rail_urban rail rail_electric ship" speed="13.89" length="5.00" shape="1.65,295.25 1.84,296.61 2.43,297.58 3.39,298.16 4.75,298.35"/>
    </edge>
    <edge id=":node_00x03_5" function="internal">
        <lane id=":node_00x03_5_0" index="0" disallow="tram rail_urban rail rail_electric ship" speed="13.89" length="9.50" shape="1.65,295.25 1.65,304.75"/>
    </edge>
    <edge id=":node_00x04_0" function="internal">
        <lane id=":node_00x04_0_0" index="0" disallow="tram rail_urban rail rail_electric ship" speed="13.89" length="9.50" shape="-1.65,404.75 -1.65,395.25"/>
    </edge>
    <edge id=":node_00x04_1" function="internal">
        <lane id=":node_00x04_1_0" index="0" disallow="tram rail_urban rail rail_electric ship" speed="13.89" length="10.32" shape="-1.65,404.75 -1.25,401.95 -0.05,399.95 1.95,398.75 4.75,398.35"/>
    </edge>
    <edge id=":node_00x04_2" function="internal">
        <lane id=":node_00x04_2_0" index="0" disallow="tram rail_urban rail rail_electric ship" speed="13.89" length="5.00" shape="4.75,401.65 3.39,401.84 2.43,402.42 1.84,403.39 1.65,404.75"/>
    </edge>
    <edge id=":node_00x04_3" function="internal">
        <lane id=":node_00x04_3_0" index="0" disallow="tram rail_urban rail rail_electric ship" speed="13.89" length="10.32" shape="4.75,401.65 1.95,401.25 -0.05,400.05 -1.25,398.05 -1.65,395.25"/>
    </edge>
    <edge id=":node_00x04_4" function="internal">
        <lane id=":node_00x04_4_0" index="0" disallow="tram rail_urban rail rail_electric ship" speed="13.89" length="5.00" shape="1.65,395.25 1.84,396.61 2.43,397.58 3.39,398.16 4.75,398.35"/>
    </edge>
    <edge id=":node_00x04_5" function="internal">
        <lane id=":node_00x04_5_0" index="0" disallow="tram rail_urban rail rail_electric ship" speed="13.89" length="9.50" shape="1.65,395.25 1.65,404.75"/>
    </edge>
    <edge id=":node_00x05_0" function="internal">
        <lane id=":node_00x05_0_0" index="0" disallow="tram rail_urban rail rail_electric ship" speed="13.89" length="7.90" shape="3.25,501.65 1.11,501.34 -0.43,500.42 -1.34,498.89 -1.65,496.75"/>
    </edge>
    <edge id=":node_00x05_1" function="internal">
        <lane id=":node_00x05_1_0" index="0" disallow="tram rail_urban rail rail_electric ship" speed="13.89" length="2.58" shape="1.65,496.75 1.75,497.45 2.05,497.95 2.55,498.25 3.25,498.35"/>
    </edge>
    <edge id=":node_00x06_0" function="internal">
        <lane id=":node_00x06_0_0" index="0" disallow="tram rail_urban rail rail_electric ship" speed="13.89" length="7.90" shape="-1.65,603.25 -1.34,601.11 -0.43,599.58 1.11,598.66 3.25,598.35"/>
    </edge>
    <edge id=":node_00x06_1" function="internal">
        <lane id=":node_00x06_1_0" index="0" disallow="tram rail_urban rail rail_electric ship" speed="13.89" length="2.58" shape="3.25,601.65 2.55,601.75 2.05,602.05 1.75,602.55 1.65,603.25"/>
    </edge>
    <edge id=":node_00x07_0" function="internal">
        <lane id=":node_00x07_0_0" index="0" disallow="tram rail_urban rail rail_electric ship" speed="13.89" length="9.50" shape="-1.65,704.75 -1.65,695.25"/>
    </edge>
    <edge id=":node_00x07_1" function="internal">
        <lane id=":node_00x07_1_0" index="0" disallow="tram rail_urban rail rail_electric ship" speed="13.89" length="10.32" shape="-1.65,704.75 -1.25,701.95 -0.05,699.95 1.95,698.75 4.75,698.35"/>
    </edge>
    <edge id=":node_00x07_2" function="internal">
        <lane id=":node_00x07_2_0" index="0" disallow="tram rail_urban rail rail_electric ship" speed="13.89" length="5.00" shape="4.75,701.65 3.39,701.84 2.43,702.42 1.84,703.39 1.65,704.75"/>
    </edge>
    <edge id=":node_00x07_3" function="internal">
        <lane id=":node_00x07_3_0" index="0" disallow="tram rail_urban rail rail_electric ship" speed="13.89" length="10.32" shape="4.75,701.65 1.95,701.25 -0.05,700.05 -1.25,698.05 -1.65,695.25"/>
    </edge>
    <edge id=":node_00x07_4" function="internal">
        <lane id=":node_00x07_4_0" index="0" disallow="tram rail_urban rail rail_electric ship" speed="13.89" length="5.00" shape="1.65,695.25 1.84,696.61 2.43,697.57 3.39,698.16 4.75,698.35"/>
    </edge>
    <edge id=":node_00x07_5" function="internal">
        <lane id=":node_00x07_5_0" index="0" disallow="tram rail_urban rail rail_electric ship" speed="13.89" length="9.50" shape="1.65,695.25 1.65,704.75"/>
    </edge>
    <edge id=":node_00x08_0" function="internal">
        <lane id=":node_00x08_0_0" index="0" disallow="tram rail_urban rail rail_electric ship" speed="13.89" length="9.50" shape="-1.65,804.75 -1.65,795.25"/>
    </edge>
    <edge id=":node_00x08_1" function="internal">
        <lane id=":node_00x08_1_0" index="0" disallow="tram rail_urban rail rail_electric ship" speed="13.89" length="10.32" shape="-1.65,804.75 -1.25,801.95 -0.05,799.95 1.95,798.75 4.75,798.35"/>
    </edge>
    <edge id=":node_00x08_2" function="internal">
        <lane id=":node_00x08_2_0" index="0" disallow="tram rail_urban rail rail_electric ship" speed="13.89" length="5.00" shape="4.75,801.65 3.39,801.84 2.43,802.42 1.84,803.39 1.65,804.75"/>
    </edge>
    <edge id=":node_00x08_3" function="internal">
        <lane id=":node_00x08_3_0" index="0" disallow="tram rail_urban rail rail_electric ship" speed="13.89" length="10.32" shape="4.75,801.65 1.95,801.25 -0.05,800.05 -1.25,798.05 -1.65,795.25"/>
    </edge>
    <edge id=":node_00x08_4" function="internal">
        <lane id=":node_00x08_4_0" index="0" disallow="tram rail_urban rail rail_electric ship" speed="13.89" length="5.00" shape="1.65,795.25 1.84,796.61 2.43,797.57 3.39,798.16 4.75,798.35"/>
    </edge>
    <edge id=":node_00x08_5" function="internal">
        <lane id=":node_00x08_5_0" index="0" disallow="tram rail_urban rail rail_electric ship" speed="13.89" length="9.50" shape="1.65,795.25 1.65,804.75"/>
    </edge>
    <edge id=":node_00x09_0" function="internal">
        <lane id=":node_00x09_0_0" index="0" disallow="tram rail_urban rail rail_electric ship" speed="13.89" length="0.10" shape="-1.65,900.00 -1.65,900.00"/>
    </edge>
    <edge id=":node_00x09_1" function="internal">
        <lane id=":node_00x09_1_0" index="0" disallow="tram rail_urban rail rail_electric ship" speed="13.89" length="0.10" shape="1.65,900.00 1.65,900.00"/>
    </edge>
    <edge id=":node_00x10_0" function="internal">
        <lane id=":node_00x10_0_0" index="0" disallow="tram rail_urban rail rail_electric ship" speed="13.89" length="4.82" shape="1.65,1000.00 0.83,1001.24 0.00,1001.65 -0.83,1001.24 -1.65,1000.00"/>
    </edge>
    <edge id=":node_00x11_0" function="internal">
        <lane id=":node_00x11_0_0" index="0" disallow="tram rail_urban rail rail_electric ship" speed="13.89" length="7.90" shape="-1.65,1103.25 -1.34,1101.11 -0.43,1099.57 1.11,1098.66 3.25,1098.35"/>
    </edge>
    <edge id=":node_00x11_1" function="internal">
        <lane id=":node_00x11_1_0" index="0" disallow="tram rail_urban rail rail_electric ship" speed="13.89" length="2.58" shape="3.25,1101.65 2.55,1101.75 2.05,1102.05 1.75,1102.55 1.65,1103.25"/>
    </edge>
    <edge id=":node_00x12_0" function="internal">
        <lane id=":node_00x12_0_0" index="0" disallow="tram rail_urban rail rail_electric ship" speed="13.89" length="9.50" shape="-1.65,1204.75 -1.65,1195.25"/>
    </edge>
    <edge id=":node_00x12_1" function="internal">
        <lane id=":node_00x12_1_0" index="0" disallow="tram rail_urban rail rail_electric ship" speed="13.89" length="10.32" shape="-1.65,1204.75 -1.25,1201.95 -0.05,1199.95 1.95,1198.75 4.75,1198.35"/>
    </edge>
    <edge id=":node_00x12_2" function="internal">
        <lane id=":node_00x12_2_0" index="0" disallow="tram rail_urban rail rail_electric ship" speed="13.89" length="5.00" shape="4.75,1201.65 3.39,1201.84 2.43,1202.43 1.84,1203.39 1.65,1204.75"/>
    </edge>
    <edge id=":node_00x12_3" function="internal">
        <lane id=":node_00x12_3_0" index="0" disallow="tram rail_urban rail rail_electric ship" speed="13.89" length="10.32" shape="4.75,1201.65 1.95,1201.25 -0.05,1200.05 -1.25,1198.05 -1.65,1195.25"/>
    </edge>
    <edge id=":node_00x12_4" function="internal">
        <lane id=":node_00x12_4_0" index="0" disallow="tram rail_urban rail rail_electric ship" speed="13.89" length="5.00" shape="1.65,1195.25 1.84,1196.61 2.43,1197.57 3.39,1198.16 4.75,1198.35"/>
    </edge>
    <edge id=":node_00x12_5" function="internal">
        <lane id=":node_00x12_5_0" index="0" disallow="tram rail_urban rail rail_electric ship" speed="13.89" length="9.50" shape="1.65,1195.25 1.65,1204.75"/>
    </edge>
    <edge id=":node_00x13_0" function="internal">
        <lane id=":node_00x13_0_0" index="0" disallow="tram rail_urban rail rail_electric ship" speed="13.89" length="9.50" shape="-1.65,1304.75 -1.65,1295.25"/>
    </edge>
    <edge id=":node_00x13_1" function="internal">
        <lane id=":node_00x13_1_0" index="0" disallow="tram rail_urban rail rail_electric ship" speed="13.89" length="10.32" shape="-1.65,1304.75 -1.25,1301.95 -0.05,1299.95 1.95,1298.75 4.75,1298.35"/>
    </edge>
    <edge id=":node_00x13_2" function="internal">
        <lane id=":node_00x13_2_0" index="0" disallow="tram rail_urban rail rail_electric ship" speed="13.89" length="5.00" shape="4.75,1301.65 3.39,1301.84 2.43,1302.43 1.84,1303.39 1.65,1304.75"/>
    </edge>
    <edge id=":node_00x13_3" function="internal">
        <lane id=":node_00x13_3_0" index="0" disallow="tram rail_urban rail rail_electric ship" speed="13.89" length="10.32" shape="4.75,1301.65 1.95,1301.25 -0.05,1300.05 -1.25,1298.05 -1.65,1295.25"/>
    </edge>
    <edge id=":node_00x13_4" function="internal">
        <lane id=":node_00x13_4_0" index="0" disallow="tram rail_urban rail rail_electric ship" speed="13.89" length="5.00" shape="1.65,1295.25 1.84,1296.61 2.43,1297.57 3.39,1298.16 4.75,1298.35"/>
    </edge>
    <edge id=":node_00x13_5" function="internal">
        <lane id=":node_00x13_5_0" index="0" disallow="tram rail_urban rail rail_electric ship" speed="13.89" length="9.50" shape="1.65,1295.25 1.65,1304.75"/>
    </edge>
    <edge id=":node_00x14_0" function="internal">
        <lane id=":node_00x14_0_0" index="0" disallow="tram rail_urban rail rail_electric ship" speed="13.89" length="0.10" shape="-1.65,1400.00 -1.65,1400.00"/>
    </edge>
    <edge id=":node_00x14_1" function="internal">
        <lane id=":node_00x14_1_0" index="0" disallow="tram rail_urban rail rail_electric ship" speed="13.89" length="0.10" shape="1.65,1400.00 1.65,1400.00"/>
    </edge>
    <edge id=":node_00x15_0" function="internal">
        <lane id=":node_00x15_0_0" index="0" disallow="tram rail_urban rail rail_electric ship" speed="13.89" length="7.90" shape="3.25,1501.65 1.11,1501.34 -0.43,1500.43 -1.34,1498.89 -1.65,1496.75"/>
    </edge>
    <edge id=":node_00x15_1" function="internal">
        <lane id=":node_00x15_1_0" index="0" disallow="tram rail_urban rail rail_electric ship" speed="13.89" length="2.58" shape="1.65,1496.75 1.75,1497.45 2.05,1497.95 2.55,1498.25 3.25,1498.35"/>
    </edge>
    <edge id=":node_00x16_0" function="internal">
        <lane id=":node_00x16_0_0" index="0" disallow="tram rail_urban rail rail_electric ship" speed="13.89" length="4.82" shape="0.00,1601.65 -1.24,1600.82 -1.65,1600.00 -1.24,1599.18 0.00,1598.35"/>
    </edge>
    <edge id=":node_00x17_0" function="internal">
        <lane id=":node_00x17_0_0" index="0" disallow="tram rail_urban rail rail_electric ship" speed="13.89" length="4.82" shape="0.00,1701.65 -1.24,1700.82 -1.65,1700.00 -1.24,1699.18 0.00,1698.35"/>
    </edge>
    <edge id=":node_00x18_0" function="internal">
        <lane id=":node_00x18_0_0" index="0" disallow="tram rail_urban rail rail_electric ship" speed="13.89" length="7.90" shape="-1.65,1803.25 -1.34,1801.11 -0.43,1799.57 1.11,1798.66 3.25,1798.35"/>
    </edge>
    <edge id=":node_00x18_1" function="internal">
        <lane id=":node_00x18_1_0" index="0" disallow="tram rail_urban rail rail_electric ship" speed="13.89" length="2.58" shape="3.25,1801.65 2.55,1801.75 2.05,1802.05 1.75,1802.55 1.65,1803.25"/>
    </edge>
    <edge id=":node_00x19_0" function="internal">
        <lane id=":node_00x19_0_0" index="0" disallow="tram rail_urban rail rail_electric ship" speed="13.89" length="9.50" shape="-1.65,1904.75 -1.65,1895.25"/>
    </edge>
    <edge id=":node_00x19_1" function="internal">
        <lane id=":node_00x19_1_0" index="0" disallow="tram rail_urban rail rail_electric ship" speed="13.89" length="10.32" shape="-1.65,1904.75 -1.25,1901.95 -0.05,1899.95 1.95,1898.75 4.75,1898.35"/>
    </edge>
    <edge id=":node_00x19_2" function="internal">
        <lane id=":node_00x19_2_0" index="0" disallow="tram rail_urban rail rail_electric ship" speed="13.89" length="5.00" shape="4.75,1901.65 3.39,1901.84 2.43,1902.43 1.84,1903.39 1.65,1904.75"/>
    </edge>
    <edge id=":node_00x19_3" function="internal">
        <lane id=":node_00x19_3_0" index="0" disallow="tram rail_urban rail rail_electric ship" speed="13.89" length="10.32" shape="4.75,1901.65 1.95,1901.25 -0.05,1900.05 -1.25,1898.05 -1.65,1895.25"/>
    </edge>
    <edge id=":node_00x19_4" function="internal">
        <lane id=":node_00x19_4_0" index="0" disallow="tram rail_urban rail rail_electric ship" speed="13.89" length="5.00" shape="1.65,1895.25 1.84,1896.61 2.43,1897.57 3.39,1898.16 4.75,1898.35"/>
    </edge>
    <edge id=":node_00x19_5" function="internal">
        <lane id=":node_00x19_5_0" index="0" disallow="tram rail_urban rail rail_electric ship" speed="13.89" length="9.50" shape="1.65,1895.25 1.65,1904.75"/>
    </edge>
    <edge id=":node_00x20_0" function="internal">
        <lane id=":node_00x20_0_0" index="0" disallow="tram rail_urban rail rail_electric ship" speed="13.89" length="7.90" shape="3.25,2001.65 1.11,2001.34 -0.43,2000.43 -1.34,1998.89 -1.65,1996.75"/>
    </edge>
    <edge id=":node_00x20_1" function="internal">
        <lane id=":node_00x20_1_0" index="0" disallow="tram rail_urban rail rail_electric ship" speed="13.89" length="2.58" shape="1.65,1996.75 1.75,1997.45 2.05,1997.95 2.55,1998.25 3.25,1998.35"/>
    </edge>
    <edge id=":node_01x00_0" function="internal">
        <lane id=":node_01x00_0_0" index="0" disallow="tram rail_urban rail rail_electric ship" speed="13.89" length="7.90" shape="98.35,3.25 98.66,1.11 99.57,-0.43 101.11,-1.34 103.25,-1.65"/>
    </edge>
    <edge id=":node_01x00_1" function="internal">
        <lane id=":node_01x00_1_0" index="0" disallow="tram rail_urban rail rail_electric ship" speed="13.89" length="2.58" shape="103.25,1.65 102.55,1.75 102.05,2.05 101.75,2.55 101.65,3.25"/>
    </edge>
    <edge id=":node_01x01_0" function="internal">
        <lane id=":node_01x01_0_0" index="0" disallow="tram rail_urban rail rail_electric ship" speed="13.89" length="9.50" shape="98.35,104.75 98.35,95.25"/>
    </edge>
    <edge id=":node_01x01_1" function="internal">
        <lane id=":node_01x01_1_0" index="0" disallow="tram rail_urban rail rail_electric ship" speed="13.89" length="10.32" shape="98.35,104.75 98.75,101.95 99.95,99.95 101.95,98.75 104.75,98.35"/>
    </edge>
    <edge id=":node_01x01_2" function="internal">
        <lane id=":node_01x01_2_0" index="0" disallow="tram rail_urban rail rail_electric ship" speed="13.89" length="5.00" shape="104.75,101.65 103.39,101.84 102.43,102.43 101.84,103.39 101.65,104.75"/>
    </edge>
    <edge id=":node_01x01_3" function="internal">
        <lane id=":node_01x01_3_0" index="0" disallow="tram rail_urban rail rail_electric ship" speed="13.89" length="10.32" shape="104.75,101.65 101.95,101.25 99.95,100.05 98.75,98.05 98.35,95.25"/>
    </edge>
    <edge id=":node_01x01_4" function="internal">
        <lane id=":node_01x01_4_0" index="0" disallow="tram rail_urban rail rail_electric ship" speed="13.89" length="5.00" shape="101.65,95.25 101.84,96.61 102.43,97.57 103.39,98.16 104.75,98.35"/>
    </edge>
    <edge id=":node_01x01_5" function="internal">
        <lane id=":node_01x01_5_0" index="0" disallow="tram rail_urban rail rail_electric ship" speed="13.89" length="9.50" shape="101.65,95.25 101.65,104.75"/>
    </edge>
    <edge id=":node_01x02_0" function="internal">
        <lane id=":node_01x02_0_0" index="0" disallow="tram rail_urban rail rail_electric ship" speed="13.89" length="5.00" shape="98.35,204.75 98.16,203.39 97.57,202.42 96.61,201.84 95.25,201.65"/>
    </edge>
    <edge id=":node_01x02_1" function="internal">
        <lane id=":node_01x02_1_0" index="0" disallow="tram rail_urban rail rail_electric ship" speed="13.89" length="9.50" shape="98.35,204.75 98.35,195.25"/>
    </edge>
    <edge id=":node_01x02_2" function="internal">
        <lane id=":node_01x02_2_0" index="0" disallow="tram rail_urban rail rail_electric ship" speed="13.89" length="10.32" shape="98.35,204.75 98.75,201.95 99.95,199.95 101.95,198.75 104.75,198.35"/>
    </edge>
    <edge id=":node_01x02_3" function="internal">
        <lane id=":node_01x02_3_0" index="0" disallow="tram rail_urban rail rail_electric ship" speed="13.89" length="5.00" shape="104.75,201.65 103.39,201.84 102.43,202.43 101.84,203.39 101.65,204.75"/>
    </edge>
    <edge id=":node_01x02_4" function="internal">
        <lane id=":node_01x02_4_0" index="0" disallow="tram rail_urban rail rail_electric ship" speed="13.89" length="9.50" shape="104.75,201.65 95.25,201.65"/>
    </edge>
    <edge id=":node_01x02_5" function="internal">
        <lane id=":node_01x02_5_0" index="0" disallow="tram rail_urban rail rail_electric ship" speed="13.89" length="10.32" shape="104.75,201.65 101.95,201.25 99.95,200.05 98.75,198.05 98.35,195.25"/>
    </edge>
    <edge id=":node_01x02_6" function="internal">
        <lane id=":node_01x02_6_0" index="0" disallow="tram rail_urban rail rail_electric ship" speed="13.89" length="5.00" shape="101.65,195.25 101.84,196.61 102.43,197.58 103.39,198.16 104.75,198.35"/>
    </edge>
    <edge id=":node_01x02_7" function="internal">
        <lane id=":node_01x02_7_0" index="0" disallow="tram rail_urban rail rail_electric ship" speed="13.89" length="9.50" shape="101.65,195.25 101.65,204.75"/>
    </edge>
    <edge id=":node_01x02_8" function="internal">
        <lane id=":node_01x02_8_0" index="0" disallow="tram rail_urban rail rail_electric ship" speed="13.89" length="10.32" shape="101.65,195.25 101.25,198.05 100.05,200.05 98.05,201.25 95.25,201.65"/>
    </edge>
    <edge id=":node_01x02_9" function="internal">
        <lane id=":node_01x02_9_0" index="0" disallow="tram rail_urban rail rail_electric ship" speed="13.89" length="5.00" shape="95.25,198.35 96.61,198.16 97.57,197.57 98.16,196.61 98.35,195.25"/>
    </edge>
    <edge id=":node_01x02_10" function="internal">
        <lane id=":node_01x02_10_0" index="0" disallow="tram rail_urban rail rail_electric ship" speed="13.89" length="9.50" shape="95.25,198.35 104.75,198.35"/>
    </edge>
    <edge id=":node_01x02_11" function="internal">
        <lane id=":node_01x02_11_0" index="0" disallow="tram rail_urban rail rail_electric ship" speed="13.89" length="10.32" shape="95.25,198.35 98.05,198.75 100.05,199.95 101.25,201.95 101.65,204.75"/>
    </edge>
    <edge id=":node_01x03_0" function="internal">
        <lane id=":node_01x03_0_0" index="0" disallow="tram rail_urban rail rail_electric ship" speed="13.89" length="9.50" shape="104.75,301.65 95.25,301.65"/>
    </edge>
    <edge id=":node_01x03_1" function="internal">
        <lane id=":node_01x03_1_0" index="0" disallow="tram rail_urban rail rail_electric ship" speed="13.89" length="10.32" shape="104.75,301.65 101.95,301.25 99.95,300.05 98.75,298.05 98.35,295.25"/>
    </edge>
    <edge id=":node_01x03_2" function="internal">
        <lane id=":node_01x03_2_0" index="0" disallow="tram rail_urban rail rail_electric ship" speed="13.89" length="5.00" shape="101.65,295.25 101.84,296.61 102.43,297.58 103.39,298.16 104.75,298.35"/>
    </edge>
    <edge id=":node_01x03_3" function="internal">
        <lane id=":node_01x03_3_0" index="0" disallow="tram rail_urban rail rail_electric ship" speed="13.89" length="10.32" shape="101.65,295.25 101.25,298.05 100.05,300.05 98.05,301.25 95.25,301.65"/>
    </edge>
    <edge id=":node_01x03_4" function="internal">
        <lane id=":node_01x03_4_0" index="0" disallow="tram rail_urban rail rail_electric ship" speed="13.89" length="5.00" shape="95.25,298.35 96.61,298.16 97.57,297.58 98.16,296.61 98.35,295.25"/>
    </edge>
    <edge id=":node_01x03_5" function="internal">
        <lane id=":node_01x03_5_0" index="0" disallow="tram rail_urban rail rail_electric ship" speed="13.89" length="9.50" shape="95.25,298.35 104.75,298.35"/>
    </edge>
    <edge id=":node_01x04_0" function="internal">
        <lane id=":node_01x04_0_0" index="0" disallow="tram rail_urban rail rail_electric ship" speed="13.89" length="2.58" shape="98.35,403.25 98.25,402.55 97.95,402.05 97.45,401.75 96.75,401.65"/>
    </edge>
    <edge id=":node_01x04_1" function="internal">
        <lane id=":node_01x04_1_0" index="0" disallow="tram rail_urban rail rail_electric ship" speed="13.89" length="7.90" shape="96.75,398.35 98.89,398.66 100.43,399.58 101.34,401.11 101.65,403.25"/>
    </edge>
    <edge id=":node_01x05_0" function="internal">
        <lane id=":node_01x05_0_0" index="0" disallow="tram rail_urban rail rail_electric ship" speed="13.89" length="5.00" shape="98.35,504.75 98.16,503.39 97.57,502.42 96.61,501.84 95.25,501.65"/>
    </edge>
    <edge id=":node_01x05_1" function="internal">
        <lane id=":node_01x05_1_0" index="0" disallow="tram rail_urban rail rail_electric ship" speed="13.89" length="9.50" shape="98.35,504.75 98.35,495.25"/>
    </edge>
    <edge id=":node_01x05_2" function="internal">
        <lane id=":node_01x05_2_0" index="0" disallow="tram rail_urban rail rail_electric ship" speed="13.89" length="10.32" shape="98.35,504.75 98.75,501.95 99.95,499.95 101.95,498.75 104.75,498.35"/>
    </edge>
    <edge id=":node_01x05_3" function="internal">
        <lane id=":node_01x05_3_0" index="0" disallow="tram rail_urban rail rail_electric ship" speed="13.89" length="5.00" shape="104.75,501.65 103.39,501.84 102.43,502.42 101.84,503.39 101.65,504.75"/>
    </edge>
    <edge id=":node_01x05_4" function="internal">
        <lane id=":node_01x05_4_0" index="0" disallow="tram rail_urban rail rail_electric ship" speed="13.89" length="9.50" shape="104.75,501.65 95.25,501.65"/>
    </edge>
    <edge id=":node_01x05_5" function="internal">
        <lane id=":node_01x05_5_0" index="0" disallow="tram rail_urban rail rail_electric ship" speed="13.89" length="10.32" shape="104.75,501.65 101.95,501.25 99.95,500.05 98.75,498.05 98.35,495.25"/>
    </edge>
    <edge id=":node_01x05_6" function="internal">
        <lane id=":node_01x05_6_0" index="0" disallow="tram rail_urban rail rail_electric ship" speed="13.89" length="5.00" shape="101.65,495.25 101.84,496.61 102.43,497.58 103.39,498.16 104.75,498.35"/>
    </edge>
    <edge id=":node_01x05_7" function="internal">
        <lane id=":node_01x05_7_0" index="0" disallow="tram rail_urban rail rail_electric ship" speed="13.89" length="9.50" shape="101.65,495.25 101.65,504.75"/>
    </edge>
    <edge id=":node_01x05_8" function="internal">
        <lane id=":node_01x05_8_0" index="0" disallow="tram rail_urban rail rail_electric ship" speed="13.89" length="10.32" shape="101.65,495.25 101.25,498.05 100.05,500.05 98.05,501.25 95.25,501.65"/>
    </edge>
    <edge id=":node_01x05_9" function="internal">
        <lane id=":node_01x05_9_0" index="0" disallow="tram rail_urban rail rail_electric ship" speed="13.89" length="5.00" shape="95.25,498.35 96.61,498.16 97.57,497.58 98.16,496.61 98.35,495.25"/>
    </edge>
    <edge id=":node_01x05_10" function="internal">
        <lane id=":node_01x05_10_0" index="0" disallow="tram rail_urban rail rail_electric ship" speed="13.89" length="9.50" shape="95.25,498.35 104.75,498.35"/>
    </edge>
    <edge id=":node_01x05_11" function="internal">
        <lane id=":node_01x05_11_0" index="0" disallow="tram rail_urban rail rail_electric ship" speed="13.89" length="10.32" shape="95.25,498.35 98.05,498.75 100.05,499.95 101.25,501.95 101.65,504.75"/>
    </edge>
    <edge id=":node_01x06_0" function="internal">
        <lane id=":node_01x06_0_0" index="0" disallow="tram rail_urban rail rail_electric ship" speed="13.89" length="9.50" shape="104.75,601.65 95.25,601.65"/>
    </edge>
    <edge id=":node_01x06_1" function="internal">
        <lane id=":node_01x06_1_0" index="0" disallow="tram rail_urban rail rail_electric ship" speed="13.89" length="10.32" shape="104.75,601.65 101.95,601.25 99.95,600.05 98.75,598.05 98.35,595.25"/>
    </edge>
    <edge id=":node_01x06_2" function="internal">
        <lane id=":node_01x06_2_0" index="0" disallow="tram rail_urban rail rail_electric ship" speed="13.89" length="5.00" shape="101.65,595.25 101.84,596.61 102.43,597.58 103.39,598.16 104.75,598.35"/>