<?xml version='1.0' encoding='UTF-8'?>
<nodes xmlns:xsi="http://www.w3.org/2001/XMLSchema-instance" version="0.27" xsi:noNamespaceSchemaLocation="http://sumo.dlr.de/xsd/edges_file.xsd"><node avg_slowdown_ratio="0.705363570915" id="node_12x13" junction="True" old_x="1200.0" old_y="1300.0" type="right_before_left" weight_num="4.0" weight_sum="2.82145428366" x="1160.94405381" x_displacement_sum="-39.0559461859" y="1323.19847727" y_displacement_sum="23.198477269" />
    <node avg_slowdown_ratio="0.67944564435" id="node_14x13" junction="True" old_x="1400.0" old_y="1300.0" type="right_before_left" weight_num="4.0" weight_sum="2.7177825774" x="1425.00751882" x_displacement_sum="25.0075188177" y="1300.0" y_displacement_sum="0.0" />
    <node avg_slowdown_ratio="0.609071274297" id="node_12x12" junction="True" old_x="1200.0" old_y="1200.0" type="right_before_left" weight_num="4.0" weight_sum="2.43628509719" x="1201.17666953" x_displacement_sum="1.17666953466" y="1161.70271716" y_displacement_sum="-38.2972828365" />
    <node avg_slowdown_ratio="0.604211663065" id="node_13x13" junction="True" old_x="1300.0" old_y="1300.0" type="right_before_left" weight_num="4.0" weight_sum="2.41684665226" x="1310.18609818" x_displacement_sum="10.1860981766" y="1307.37629393" y_displacement_sum="7.37629393251" />
    <node avg_slowdown_ratio="0.570734341252" id="node_08x05" junction="True" old_x="800.0" old_y="500.0" type="right_before_left" weight_num="4.0" weight_sum="2.28293736501" x="800.0" y="500.0" />
    <node avg_slowdown_ratio="0.538156947445" id="node_09x09" junction="True" old_x="900.0" old_y="900.0" type="right_before_left" weight_num="4.0" weight_sum="2.15262778978" x="900.0" x_displacement_sum="0.0" y="900.490750531" y_displacement_sum="0.49075053145" />
    <node avg_slowdown_ratio="0.517638588913" id="node_12x09" junction="True" old_x="1200.0" old_y="900.0" type="right_before_left" weight_num="4.0" weight_sum="2.07055435565" x="1200.0" x_displacement_sum="0.0" y="890.412506985" y_displacement_sum="-9.58749301545" />
    <node avg_slowdown_ratio="0.515298776097" id="node_10x12" junction="True" old_x="1000.0" old_y="1200.0" type="right_before_left" weight_num="4.0" weight_sum="2.06119510439" x="992.244204286" x_displacement_sum="-7.75579571388" y="1200.0" y_displacement_sum="0.0" />
    <node avg_slowdown_ratio="0.48932085433" id="node_12x05" junction="True" old_x="1200.0" old_y="500.0" type="right_before_left" weight_num="3.0" weight_sum="1.46796256299" x="1203.69099538" x_displacement_sum="3.6909953759" y="484.135544275" y_displacement_sum="-15.8644557253" />
    <node avg_slowdown_ratio="0.48794096472" id="node_12x11" junction="True" old_x="1200.0" old_y="1100.0" type="right_before_left" weight_num="4.0" weight_sum="1.95176385888" x="1200.0" x_displacement_sum="0.0" y="1074.96392618" y_displacement_sum="-25.0360738209" />
    <node avg_slowdown_ratio="0.472642188625" id="node_12x14" junction="True" old_x="1200.0" old_y="1400.0" type="right_before_left" weight_num="4.0" weight_sum="1.8905687545" x="1193.42087382" x_displacement_sum="-6.57912617922" y="1452.36403435" y_displacement_sum="52.3640343469" />
    <node avg_slowdown_ratio="0.469402447805" id="node_12x06" junction="True" old_x="1200.0" old_y="600.0" type="right_before_left" weight_num="4.0" weight_sum="1.87760979122" x="1200.0" x_displacement_sum="0.0" y="617.19720119" y_displacement_sum="17.1972011904" />
    <node avg_slowdown_ratio="0.46562275018" id="node_06x14" junction="True" old_x="600.0" old_y="1400.0" type="right_before_left" weight_num="4.0" weight_sum="1.86249100072" x="589.823794943" x_displacement_sum="-10.1762050574" y="1400.0" y_displacement_sum="0.0" />
    <node avg_slowdown_ratio="0.463822894167" id="node_12x10" junction="True" old_x="1200.0" old_y="1000.0" type="right_before_left" weight_num="4.0" weight_sum="1.85529157667" x="1200.0" x_displacement_sum="0.0" y="1005.60942131" y_displacement_sum="5.6094213113" />
    <node avg_slowdown_ratio="0.46076313895" id="node_15x13" junction="True" old_x="1500.0" old_y="1300.0" type="right_before_left" weight_num="3.0" weight_sum="1.38228941685" x="1548.52378966" x_displacement_sum="48.523789661" y="1300.0" y_displacement_sum="0.0" />
    <node avg_slowdown_ratio="0.45752339813" id="node_06x05" junction="True" old_x="600.0" old_y="500.0" type="right_before_left" weight_num="4.0" weight_sum="1.83009359252" x="600.0" y="500.0" />
    <node avg_slowdown_ratio="0.443004559637" id="node_07x14" junction="True" old_x="700.0" old_y="1400.0" type="right_before_left" weight_num="3.0" weight_sum="1.32901367891" x="715.075334458" x_displacement_sum="15.0753344581" y="1400.0" y_displacement_sum="0.0" />
    <node avg_slowdown_ratio="0.432325413968" id="node_11x12" junction="True" old_x="1100.0" old_y="1200.0" type="right_before_left" weight_num="4.0" weight_sum="1.72930165587" x="1063.35131283" x_displacement_sum="-36.6486871724" y="1178.28384519" y_displacement_sum="-21.716154813" />
    <node avg_slowdown_ratio="0.424946004318" id="node_07x09" junction="True" old_x="700.0" old_y="900.0" type="right_before_left" weight_num="4.0" weight_sum="1.69978401727" x="701.986706404" x_displacement_sum="1.98670640449" y="900.0" y_displacement_sum="0.0" />
    <node avg_slowdown_ratio="0.422846172307" id="node_12x15" junction="True" old_x="1200.0" old_y="1500.0" type="right_before_left" weight_num="3.0" weight_sum="1.26853851692" x="1200.0" x_displacement_sum="0.0" y="1516.53421657" y_displacement_sum="16.5342165686" />
    <node avg_slowdown_ratio="0.420986321095" id="node_12x08" junction="True" old_x="1200.0" old_y="800.0" type="right_before_left" weight_num="4.0" weight_sum="1.68394528438" x="1200.0" x_displacement_sum="0.0" y="777.464760051" y_displacement_sum="-22.5352399488" />
    <node avg_slowdown_ratio="0.41720662347" id="node_15x06" junction="True" old_x="1500.0" old_y="600.0" type="right_before_left" weight_num="4.0" weight_sum="1.66882649388" x="1500.0" y="600.0" />
    <node avg_slowdown_ratio="0.415046796258" id="node_11x05" junction="True" old_x="1100.0" old_y="500.0" type="right_before_left" weight_num="4.0" weight_sum="1.66018718503" x="1080.1131802" x_displacement_sum="-19.8868198007" y="500.0" y_displacement_sum="0.0" />
    <node avg_slowdown_ratio="0.41090712743" id="node_12x07" junction="True" old_x="1200.0" old_y="700.0" type="right_before_left" weight_num="4.0" weight_sum="1.64362850972" x="1200.0" x_displacement_sum="0.0" y="710.755328724" y_displacement_sum="10.755328724" />
    <node avg_slowdown_ratio="0.408027357812" id="node_06x09" junction="True" old_x="600.0" old_y="900.0" type="right_before_left" weight_num="4.0" weight_sum="1.63210943125" x="593.957613316" x_displacement_sum="-6.0423866843" y="900.0" y_displacement_sum="0.0" />
    <node avg_slowdown_ratio="0.401967842573" id="node_09x08" junction="True" old_x="900.0" old_y="800.0" type="right_before_left" weight_num="3.0" weight_sum="1.20590352772" x="900.0" x_displacement_sum="0.0" y="771.172335122" y_displacement_sum="-28.8276648778" />
    <node avg_slowdown_ratio="0.399748020157" id="node_04x09" junction="True" old_x="400.0" old_y="900.0" type="right_before_left" weight_num="4.0" weight_sum="1.59899208063" x="400.0" y="900.0" />
    <node avg_slowdown_ratio="0.391468682505" id="node_04x10" junction="True" old_x="400.0" old_y="1000.0" type="right_before_left" weight_num="4.0" weight_sum="1.56587473002" x="400.0" y="1000.0" />
    <node avg_slowdown_ratio="0.388768898488" id="node_08x16" junction="True" old_x="800.0" old_y="1600.0" type="right_before_left" weight_num="4.0" weight_sum="1.55507559395" x="800.0" y="1600.0" />
    <node avg_slowdown_ratio="0.385649148067" id="node_11x09" junction="True" old_x="1100.0" old_y="900.0" type="right_before_left" weight_num="3.0" weight_sum="1.1569474442" x="1074.77514144" x_displacement_sum="-25.2248585591" y="900.0" y_displacement_sum="0.0" />
    <node avg_slowdown_ratio="0.374130069593" id="node_08x09" junction="True" old_x="800.0" old_y="900.0" type="right_before_left" weight_num="3.0" weight_sum="1.12239020878" x="777.214721807" x_displacement_sum="-22.7852781935" y="900.0" y_displacement_sum="0.0" />
    <node avg_slowdown_ratio="0.371010319173" id="node_08x14" junction="True" old_x="800.0" old_y="1400.0" type="right_before_left" weight_num="3.0" weight_sum="1.11303095752" x="810.176205057" x_displacement_sum="10.1762050574" y="1400.0" y_displacement_sum="0.0" />
    <node avg_slowdown_ratio="0.366090712742" id="node_06x12" junction="True" old_x="600.0" old_y="1200.0" type="right_before_left" weight_num="4.0" weight_sum="1.46436285097" x="600.0" y="1200.0" />
    <node avg_slowdown_ratio="0.358711303097" id="node_16x13" junction="True" old_x="1600.0" old_y="1300.0" type="right_before_left" weight_num="4.0" weight_sum="1.43484521239" x="1614.04842737" x_displacement_sum="14.0484273682" y="1300.0" y_displacement_sum="0.0" />
    <node avg_slowdown_ratio="0.358711303095" id="node_08x13" junction="True" old_x="800.0" old_y="1300.0" type="right_before_left" weight_num="4.0" weight_sum="1.43484521238" x="800.0" y="1300.0" />
    <node avg_slowdown_ratio="0.341072714183" id="node_17x09" junction="True" old_x="1700.0" old_y="900.0" type="right_before_left" weight_num="4.0" weight_sum="1.36429085673" x="1700.0" y="900.0" />
    <node avg_slowdown_ratio="0.338912886967" id="node_04x05" junction="True" old_x="400.0" old_y="500.0" type="right_before_left" weight_num="4.0" weight_sum="1.35565154787" x="400.0" y="500.0" />
    <node avg_slowdown_ratio="0.333813294937" id="node_04x08" junction="True" old_x="400.0" old_y="800.0" type="right_before_left" weight_num="3.0" weight_sum="1.00143988481" x="400.0" y="800.0" />
    <node avg_slowdown_ratio="0.332433405327" id="node_04x12" junction="True" old_x="400.0" old_y="1200.0" type="right_before_left" weight_num="4.0" weight_sum="1.32973362131" x="400.0" y="1200.0" />
    <node avg_slowdown_ratio="0.330453563715" id="node_06x10" junction="True" old_x="600.0" old_y="1000.0" type="right_before_left" weight_num="4.0" weight_sum="1.32181425486" x="600.0" x_displacement_sum="0.0" y="1001.9867064" y_displacement_sum="1.98670640449" />
    <node avg_slowdown_ratio="0.32973362131" id="node_14x14" junction="True" old_x="1400.0" old_y="1400.0" type="right_before_left" weight_num="3.0" weight_sum="0.98920086393" x="1406.57912618" x_displacement_sum="6.57912617922" y="1455.10291584" y_displacement_sum="55.1029158402" />
    <node avg_slowdown_ratio="0.32661387089" id="node_07x05" junction="True" old_x="700.0" old_y="500.0" type="right_before_left" weight_num="3.0" weight_sum="0.97984161267" x="679.235248512" x_displacement_sum="-20.7647514884" y="500.0" y_displacement_sum="0.0" />
    <node avg_slowdown_ratio="0.326313894888" id="node_09x13" junction="True" old_x="900.0" old_y="1300.0" type="right_before_left" weight_num="4.0" weight_sum="1.30525557955" x="900.0" y="1300.0" />
    <node avg_slowdown_ratio="0.322534197265" id="node_17x13" junction="True" old_x="1700.0" old_y="1300.0" type="right_before_left" weight_num="4.0" weight_sum="1.29013678906" x="1700.0" y="1300.0" />
    <node avg_slowdown_ratio="0.322174226063" id="node_15x10" junction="True" old_x="1500.0" old_y="1000.0" type="right_before_left" weight_num="4.0" weight_sum="1.28869690425" x="1500.0" y="1000.0" />
    <node avg_slowdown_ratio="0.318394528437" id="node_11x04" junction="True" old_x="1100.0" old_y="400.0" type="right_before_left" weight_num="4.0" weight_sum="1.27357811375" x="1100.0" x_displacement_sum="0.0" y="396.309004624" y_displacement_sum="-3.6909953759" />
    <node avg_slowdown_ratio="0.318034557235" id="node_09x10" junction="True" old_x="900.0" old_y="1000.0" type="right_before_left" weight_num="4.0" weight_sum="1.27213822894" x="900.0" x_displacement_sum="0.0" y="1028.82766488" y_displacement_sum="28.8276648778" />
    <node avg_slowdown_ratio="0.317674586032" id="node_09x12" junction="True" old_x="900.0" old_y="1200.0" type="right_before_left" weight_num="4.0" weight_sum="1.27069834413" x="875.199838522" x_displacement_sum="-24.8001614782" y="1200.0" y_displacement_sum="0.0" />
    <node avg_slowdown_ratio="0.316594672428" id="node_17x12" junction="True" old_x="1700.0" old_y="1200.0" type="right_before_left" weight_num="4.0" weight_sum="1.26637868971" x="1700.0" y="1200.0" />
    <node avg_slowdown_ratio="0.316054715622" id="node_13x16" junction="True" old_x="1300.0" old_y="1600.0" type="right_before_left" weight_num="4.0" weight_sum="1.26421886249" x="1300.0" y="1600.0" />
    <node avg_slowdown_ratio="0.314974802015" id="node_17x10" junction="True" old_x="1700.0" old_y="1000.0" type="right_before_left" weight_num="4.0" weight_sum="1.25989920806" x="1700.0" y="1000.0" />
    <node avg_slowdown_ratio="0.314794816415" id="node_08x12" junction="True" old_x="800.0" old_y="1200.0" type="right_before_left" weight_num="4.0" weight_sum="1.25917926566" x="800.0" y="1200.0" />
    <node avg_slowdown_ratio="0.313354931605" id="node_17x05" junction="True" old_x="1700.0" old_y="500.0" type="right_before_left" weight_num="4.0" weight_sum="1.25341972642" x="1700.0" y="500.0" />
    <node avg_slowdown_ratio="0.3124550036" id="node_08x03" junction="True" old_x="800.0" old_y="300.0" type="right_before_left" weight_num="3.0" weight_sum="0.937365010799" x="800.0" y="300.0" />
    <node avg_slowdown_ratio="0.312275018" id="node_06x13" junction="True" old_x="600.0" old_y="1300.0" type="right_before_left" weight_num="4.0" weight_sum="1.249100072" x="600.0" x_displacement_sum="0.0" y="1284.92466554" y_displacement_sum="-15.0753344581" />
    <node avg_slowdown_ratio="0.312215022798" id="node_13x06" junction="True" old_x="1300.0" old_y="600.0" type="right_before_left" weight_num="3.0" weight_sum="0.936645068395" x="1315.86445573" x_displacement_sum="15.8644557253" y="600.0" y_displacement_sum="0.0" />
    <node avg_slowdown_ratio="0.311915046797" id="node_12x04" junction="True" old_x="1200.0" old_y="400.0" type="right_before_left" weight_num="4.0" weight_sum="1.24766018719" x="1200.0" x_displacement_sum="0.0" y="380.113180199" y_displacement_sum="-19.8868198007" />
    <node avg_slowdown_ratio="0.311735061195" id="node_08x15" junction="True" old_x="800.0" old_y="1500.0" type="right_before_left" weight_num="3.0" weight_sum="0.935205183586" x="800.0" y="1500.0" />
    <node avg_slowdown_ratio="0.311495080394" id="node_06x04" junction="True" old_x="600.0" old_y="400.0" type="right_before_left" weight_num="3.0" weight_sum="0.934485241181" x="600.0" x_displacement_sum="0.0" y="386.643930255" y_displacement_sum="-13.3560697453" />
    <node avg_slowdown_ratio="0.31101511879" id="node_05x18" junction="True" old_x="500.0" old_y="1800.0" type="right_before_left" weight_num="4.0" weight_sum="1.24406047516" x="500.0" y="1800.0" />
    <node avg_slowdown_ratio="0.310535157187" id="node_10x13" junction="True" old_x="1000.0" old_y="1300.0" type="right_before_left" weight_num="3.0" weight_sum="0.931605471562" x="1000.0" x_displacement_sum="0.0" y="1324.80016148" y_displacement_sum="24.8001614782" />
    <node avg_slowdown_ratio="0.310115190785" id="node_03x12" junction="True" old_x="300.0" old_y="1200.0" type="right_before_left" weight_num="4.0" weight_sum="1.24046076314" x="300.0" y="1200.0" />
    <node avg_slowdown_ratio="0.309755219583" id="node_06x03" junction="True" old_x="600.0" old_y="300.0" type="right_before_left" weight_num="4.0" weight_sum="1.23902087833" x="600.0" y="300.0" />
    <node avg_slowdown_ratio="0.306875449965" id="node_17x06" junction="True" old_x="1700.0" old_y="600.0" type="right_before_left" weight_num="4.0" weight_sum="1.22750179986" x="1700.0" y="600.0" />
    <node avg_slowdown_ratio="0.306695464363" id="node_04x06" junction="True" old_x="400.0" old_y="600.0" type="right_before_left" weight_num="3.0" weight_sum="0.920086393089" x="400.0" y="600.0" />
    <node avg_slowdown_ratio="0.306515478763" id="node_05x15" junction="True" old_x="500.0" old_y="1500.0" type="right_before_left" weight_num="4.0" weight_sum="1.22606191505" x="500.0" y="1500.0" />
    <node avg_slowdown_ratio="0.30621550276" id="node_05x09" junction="True" old_x="500.0" old_y="900.0" type="right_before_left" weight_num="3.0" weight_sum="0.918646508279" x="498.013293596" x_displacement_sum="-1.98670640449" y="900.0" y_displacement_sum="0.0" />
    <node avg_slowdown_ratio="0.305975521958" id="node_13x04" junction="True" old_x="1300.0" old_y="400.0" type="right_before_left" weight_num="3.0" weight_sum="0.917926565874" x="1300.0" y="400.0" />
    <node avg_slowdown_ratio="0.305615550755" id="node_04x14" junction="True" old_x="400.0" old_y="1400.0" type="right_before_left" weight_num="4.0" weight_sum="1.22246220302" x="400.0" y="1400.0" />
    <node avg_slowdown_ratio="0.305075593953" id="node_05x14" junction="True" old_x="500.0" old_y="1400.0" type="right_before_left" weight_num="4.0" weight_sum="1.22030237581" x="484.924665542" x_displacement_sum="-15.0753344581" y="1400.0" y_displacement_sum="0.0" />
    <node avg_slowdown_ratio="0.304055675546" id="node_00x13" junction="True" old_x="0.0" old_y="1300.0" type="right_before_left" weight_num="3.0" weight_sum="0.912167026638" x="0.0" y="1300.0" />
    <node avg_slowdown_ratio="0.303635709142" id="node_07x10" junction="True" old_x="700.0" old_y="1000.0" type="right_before_left" weight_num="4.0" weight_sum="1.21454283657" x="700.0" x_displacement_sum="0.0" y="1006.04238668" y_displacement_sum="6.0423866843" />
    <node avg_slowdown_ratio="0.302915766737" id="node_14x02" junction="True" old_x="1400.0" old_y="200.0" type="right_before_left" weight_num="4.0" weight_sum="1.21166306695" x="1400.0" y="200.0" />
    <node avg_slowdown_ratio="0.302555795538" id="node_17x08" junction="True" old_x="1700.0" old_y="800.0" type="right_before_left" weight_num="4.0" weight_sum="1.21022318215" x="1700.0" y="800.0" />
    <node avg_slowdown_ratio="0.302015838732" id="node_14x11" junction="True" old_x="1400.0" old_y="1100.0" type="right_before_left" weight_num="4.0" weight_sum="1.20806335493" x="1400.0" y="1100.0" />
    <node avg_slowdown_ratio="0.301835853132" id="node_11x08" junction="True" old_x="1100.0" old_y="800.0" type="right_before_left" weight_num="4.0" weight_sum="1.20734341253" x="1094.890873" x_displacement_sum="-5.10912700125" y="800.0" y_displacement_sum="0.0" />
    <node avg_slowdown_ratio="0.300755939525" id="node_12x16" junction="True" old_x="1200.0" old_y="1600.0" type="right_before_left" weight_num="4.0" weight_sum="1.2030237581" x="1200.0" x_displacement_sum="0.0" y="1605.54868574" y_displacement_sum="5.54868573743" />
    <node avg_slowdown_ratio="0.29997600192" id="node_10x17" junction="True" old_x="1000.0" old_y="1700.0" type="right_before_left" weight_num="3.0" weight_sum="0.899928005759" x="1000.0" y="1700.0" />
    <node avg_slowdown_ratio="0.2968562515" id="node_09x05" junction="True" old_x="900.0" old_y="500.0" type="right_before_left" weight_num="3.0" weight_sum="0.890568754499" x="934.120821234" x_displacement_sum="34.1208212337" y="500.0" y_displacement_sum="0.0" />
    <node avg_slowdown_ratio="0.296256299495" id="node_12x02" junction="True" old_x="1200.0" old_y="200.0" type="right_before_left" weight_num="4.0" weight_sum="1.18502519798" x="1200.0" y="200.0" />
    <node avg_slowdown_ratio="0.296076313895" id="node_04x11" junction="True" old_x="400.0" old_y="1100.0" type="right_before_left" weight_num="4.0" weight_sum="1.18430525558" x="400.0" y="1100.0" />
    <node avg_slowdown_ratio="0.296076313895" id="node_07x12" junction="True" old_x="700.0" old_y="1200.0" type="right_before_left" weight_num="4.0" weight_sum="1.18430525558" x="700.0" y="1200.0" />
    <node avg_slowdown_ratio="0.296076313895" id="node_17x07" junction="True" old_x="1700.0" old_y="700.0" type="right_before_left" weight_num="4.0" weight_sum="1.18430525558" x="1700.0" y="700.0" />
    <node avg_slowdown_ratio="0.295896328295" id="node_06x15" junction="True" old_x="600.0" old_y="1500.0" type="right_before_left" weight_num="4.0" weight_sum="1.18358531318" x="600.0" x_displacement_sum="0.0" y="1515.07533446" y_displacement_sum="15.0753344581" />
    <node avg_slowdown_ratio="0.295896328294" id="node_00x14" junction="True" old_x="0.0" old_y="1400.0" type="right_before_left" weight_num="3.0" weight_sum="0.887688984882" x="0.0" y="1400.0" />
    <node avg_slowdown_ratio="0.295896328293" id="node_19x16" junction="True" old_x="1900.0" old_y="1600.0" type="right_before_left" weight_num="2.0" weight_sum="0.591792656587" x="1900.0" y="1600.0" />
    <node avg_slowdown_ratio="0.29517638589" id="node_06x16" junction="True" old_x="600.0" old_y="1600.0" type="right_before_left" weight_num="2.0" weight_sum="0.590352771779" x="600.0" y="1600.0" />
    <node avg_slowdown_ratio="0.295176385889" id="node_11x03" junction="True" old_x="1100.0" old_y="300.0" type="right_before_left" weight_num="3.0" weight_sum="0.885529157667" x="1100.0" y="300.0" />
    <node avg_slowdown_ratio="0.294696424286" id="node_01x08" junction="True" old_x="100.0" old_y="800.0" type="right_before_left" weight_num="3.0" weight_sum="0.884089272859" x="100.0" y="800.0" />
    <node avg_slowdown_ratio="0.29355651548" id="node_10x19" junction="True" old_x="1000.0" old_y="1900.0" type="right_before_left" weight_num="4.0" weight_sum="1.17422606192" x="1000.0" y="1900.0" />
    <node avg_slowdown_ratio="0.292056635469" id="node_04x07" junction="True" old_x="400.0" old_y="700.0" type="right_before_left" weight_num="3.0" weight_sum="0.876169906408" x="400.0" y="700.0" />
    <node avg_slowdown_ratio="0.291936645068" id="node_11x17" junction="True" old_x="1100.0" old_y="1700.0" type="right_before_left" weight_num="4.0" weight_sum="1.16774658027" x="1100.0" y="1700.0" />
    <node avg_slowdown_ratio="0.291936645068" id="node_18x16" junction="True" old_x="1800.0" old_y="1600.0" type="right_before_left" weight_num="4.0" weight_sum="1.16774658027" x="1800.0" y="1600.0" />
    <node avg_slowdown_ratio="0.291756659468" id="node_07x11" junction="True" old_x="700.0" old_y="1100.0" type="right_before_left" weight_num="4.0" weight_sum="1.16702663787" x="700.0" y="1100.0" />
    <node avg_slowdown_ratio="0.291576673865" id="node_07x03" junction="True" old_x="700.0" old_y="300.0" type="right_before_left" weight_num="4.0" weight_sum="1.16630669546" x="700.0" y="300.0" />
    <node avg_slowdown_ratio="0.291396688265" id="node_09x15" junction="True" old_x="900.0" old_y="1500.0" type="right_before_left" weight_num="4.0" weight_sum="1.16558675306" x="900.0" y="1500.0" />
    <node avg_slowdown_ratio="0.290376769859" id="node_08x17" junction="True" old_x="800.0" old_y="1700.0" type="right_before_left" weight_num="3.0" weight_sum="0.871130309576" x="800.0" y="1700.0" />
    <node avg_slowdown_ratio="0.289596832252" id="node_16x06" junction="True" old_x="1600.0" old_y="600.0" type="right_before_left" weight_num="4.0" weight_sum="1.15838732901" x="1604.20921665" x_displacement_sum="4.20921665008" y="600.0" y_displacement_sum="0.0" />
    <node avg_slowdown_ratio="0.288336933045" id="node_01x19" junction="True" old_x="100.0" old_y="1900.0" type="right_before_left" weight_num="4.0" weight_sum="1.15334773218" x="100.0" y="1900.0" />
    <node avg_slowdown_ratio="0.287976961842" id="node_15x08" junction="True" old_x="1500.0" old_y="800.0" type="right_before_left" weight_num="4.0" weight_sum="1.15190784737" x="1500.0" y="800.0" />
    <node avg_slowdown_ratio="0.287736981042" id="node_14x06" junction="True" old_x="1400.0" old_y="600.0" type="right_before_left" weight_num="3.0" weight_sum="0.863210943125" x="1395.79078335" x_displacement_sum="-4.20921665008" y="600.0" y_displacement_sum="0.0" />
    <node avg_slowdown_ratio="0.287077033837" id="node_11x14" junction="True" old_x="1100.0" old_y="1400.0" type="right_before_left" weight_num="4.0" weight_sum="1.14830813535" x="1061.74962862" x_displacement_sum="-38.2503713816" y="1421.71615481" y_displacement_sum="21.716154813" />
    <node avg_slowdown_ratio="0.286177105833" id="node_04x15" junction="True" old_x="400.0" old_y="1500.0" type="right_before_left" weight_num="4.0" weight_sum="1.14470842333" x="400.0" y="1500.0" />
    <node avg_slowdown_ratio="0.286177105832" id="node_01x16" junction="True" old_x="100.0" old_y="1600.0" type="right_before_left" weight_num="2.0" weight_sum="0.572354211664" x="100.0" y="1600.0" />
    <node avg_slowdown_ratio="0.285637149027" id="node_15x16" junction="True" old_x="1500.0" old_y="1600.0" type="right_before_left" weight_num="4.0" weight_sum="1.14254859611" x="1500.0" y="1600.0" />
    <node avg_slowdown_ratio="0.284737221022" id="node_02x08" junction="True" old_x="200.0" old_y="800.0" type="right_before_left" weight_num="4.0" weight_sum="1.13894888409" x="200.0" y="800.0" />
    <node avg_slowdown_ratio="0.28437724982" id="node_00x17" junction="True" old_x="0.0" old_y="1700.0" type="right_before_left" weight_num="3.0" weight_sum="0.853131749461" x="0.0" y="1700.0" />
    <node avg_slowdown_ratio="0.28437724982" id="node_09x17" junction="True" old_x="900.0" old_y="1700.0" type="right_before_left" weight_num="4.0" weight_sum="1.13750899928" x="900.0" y="1700.0" />
    <node avg_slowdown_ratio="0.283417326614" id="node_08x04" junction="True" old_x="800.0" old_y="400.0" type="right_before_left" weight_num="3.0" weight_sum="0.850251979842" x="800.0" x_displacement_sum="0.0" y="365.879178766" y_displacement_sum="-34.1208212337" />
    <node avg_slowdown_ratio="0.283117350612" id="node_03x11" junction="True" old_x="300.0" old_y="1100.0" type="right_before_left" weight_num="4.0" weight_sum="1.13246940245" x="300.0" y="1100.0" />
    <node avg_slowdown_ratio="0.28275737941" id="node_09x07" junction="True" old_x="900.0" old_y="700.0" type="right_before_left" weight_num="4.0" weight_sum="1.13102951764" x="900.0" x_displacement_sum="0.0" y="699.509249469" y_displacement_sum="-0.49075053145" />
    <node avg_slowdown_ratio="0.282217422606" id="node_20x10" junction="True" old_x="2000.0" old_y="1000.0" type="right_before_left" weight_num="2.0" weight_sum="0.564434845212" x="2000.0" y="1000.0" />
    <node avg_slowdown_ratio="0.282037437005" id="node_14x19" junction="True" old_x="1400.0" old_y="1900.0" type="right_before_left" weight_num="4.0" weight_sum="1.12814974802" x="1400.0" y="1900.0" />
    <node avg_slowdown_ratio="0.281497480202" id="node_04x17" junction="True" old_x="400.0" old_y="1700.0" type="right_before_left" weight_num="4.0" weight_sum="1.12598992081" x="400.0" y="1700.0" />
    <node avg_slowdown_ratio="0.281137509" id="node_17x04" junction="True" old_x="1700.0" old_y="400.0" type="right_before_left" weight_num="4.0" weight_sum="1.124550036" x="1700.0" y="400.0" />
    <node avg_slowdown_ratio="0.280957523398" id="node_03x18" junction="True" old_x="300.0" old_y="1800.0" type="right_before_left" weight_num="4.0" weight_sum="1.12383009359" x="300.0" y="1800.0" />
    <node avg_slowdown_ratio="0.280777537797" id="node_13x12" junction="True" old_x="1300.0" old_y="1200.0" type="right_before_left" weight_num="2.0" weight_sum="0.561555075594" x="1343.32730589" x_displacement_sum="43.3273058925" y="1121.10635624" y_displacement_sum="-78.893643757" />
    <node avg_slowdown_ratio="0.280057595393" id="node_09x16" junction="True" old_x="900.0" old_y="1600.0" type="right_before_left" weight_num="4.0" weight_sum="1.12023038157" x="900.0" y="1600.0" />
    <node avg_slowdown_ratio="0.280057595392" id="node_11x13" junction="True" old_x="1100.0" old_y="1300.0" type="right_before_left" weight_num="3.0" weight_sum="0.840172786177" x="1041.29011216" x_displacement_sum="-58.7098878376" y="1315.13208965" y_displacement_sum="15.1320896464" />
    <node avg_slowdown_ratio="0.27951763859" id="node_15x02" junction="True" old_x="1500.0" old_y="200.0" type="right_before_left" weight_num="4.0" weight_sum="1.11807055436" x="1500.0" y="200.0" />
    <node avg_slowdown_ratio="0.278977681785" id="node_04x04" junction="True" old_x="400.0" old_y="400.0" type="right_before_left" weight_num="4.0" weight_sum="1.11591072714" x="400.0" y="400.0" />
    <node avg_slowdown_ratio="0.278617710583" id="node_17x14" junction="True" old_x="1700.0" old_y="1400.0" type="right_before_left" weight_num="4.0" weight_sum="1.11447084233" x="1700.0" y="1400.0" />
    <node avg_slowdown_ratio="0.278617710583" id="node_20x08" junction="True" old_x="2000.0" old_y="800.0" type="right_before_left" weight_num="2.0" weight_sum="0.557235421166" x="2000.0" y="800.0" />
    <node avg_slowdown_ratio="0.278437724983" id="node_15x09" junction="True" old_x="1500.0" old_y="900.0" type="right_before_left" weight_num="4.0" weight_sum="1.11375089993" x="1500.0" y="900.0" />
    <node avg_slowdown_ratio="0.27807775378" id="node_06x08" junction="True" old_x="600.0" old_y="800.0" type="right_before_left" weight_num="4.0" weight_sum="1.11231101512" x="600.0" x_displacement_sum="0.0" y="798.013293596" y_displacement_sum="-1.98670640449" />
    <node avg_slowdown_ratio="0.277177825774" id="node_09x11" junction="True" old_x="900.0" old_y="1100.0" type="right_before_left" weight_num="3.0" weight_sum="0.831533477322" x="900.0" y="1100.0" />
    <node avg_slowdown_ratio="0.276817854573" id="node_05x02" junction="True" old_x="500.0" old_y="200.0" type="right_before_left" weight_num="4.0" weight_sum="1.10727141829" x="500.0" y="200.0" />
    <node avg_slowdown_ratio="0.276817854573" id="node_18x15" junction="True" old_x="1800.0" old_y="1500.0" type="right_before_left" weight_num="4.0" weight_sum="1.10727141829" x="1800.0" y="1500.0" />
    <node avg_slowdown_ratio="0.276097912168" id="node_18x12" junction="True" old_x="1800.0" old_y="1200.0" type="right_before_left" weight_num="4.0" weight_sum="1.10439164867" x="1800.0" y="1200.0" />
    <node avg_slowdown_ratio="0.275917926565" id="node_03x10" junction="True" old_x="300.0" old_y="1000.0" type="right_before_left" weight_num="4.0" weight_sum="1.10367170626" x="300.0" y="1000.0" />