<?xml version='1.0' encoding='UTF-8'?>
<nodes xmlns:xsi="http://www.w3.org/2001/XMLSchema-instance" version="0.27" xsi:noNamespaceSchemaLocation="http://sumo.dlr.de/xsd/edges_file.xsd"><node avg_slowdown_ratio="0.348272138228" id="node_12x06" junction="True" old_x="1200.0" old_y="600.0" type="right_before_left" weight_num="4.0" weight_sum="1.39308855291" x="1205.75626587" x_displacement_sum="5.75626586827" y="603.929373806" y_displacement_sum="3.92937380587" />
    <node avg_slowdown_ratio="0.34683225342" id="node_08x05" junction="True" old_x="800.0" old_y="500.0" type="right_before_left" weight_num="4.0" weight_sum="1.38732901368" x="806.453100782" x_displacement_sum="6.45310078232" y="498.524694781" y_displacement_sum="-1.47530521913" />
    <node avg_slowdown_ratio="0.340172786178" id="node_12x11" junction="True" old_x="1200.0" old_y="1100.0" type="right_before_left" weight_num="4.0" weight_sum="1.36069114471" x="1201.04960176" x_displacement_sum="1.04960176462" y="1094.7551292" y_displacement_sum="-5.24487080106" />
    <node avg_slowdown_ratio="0.339992800577" id="node_12x12" junction="True" old_x="1200.0" old_y="1200.0" type="right_before_left" weight_num="4.0" weight_sum="1.35997120231" x="1199.73653769" x_displacement_sum="-0.263462306441" y="1217.42253926" y_displacement_sum="17.4225392599" />
    <node avg_slowdown_ratio="0.338552915768" id="node_09x09" junction="True" old_x="900.0" old_y="900.0" type="right_before_left" weight_num="4.0" weight_sum="1.35421166307" x="927.701836859" x_displacement_sum="27.701836859" y="894.624760335" y_displacement_sum="-5.37523966518" />
    <node avg_slowdown_ratio="0.326133909288" id="node_13x13" junction="True" old_x="1300.0" old_y="1300.0" type="right_before_left" weight_num="4.0" weight_sum="1.30453563715" x="1302.43218538" x_displacement_sum="2.43218537635" y="1310.02484397" y_displacement_sum="10.0248439742" />
    <node avg_slowdown_ratio="0.325233981282" id="node_12x09" junction="True" old_x="1200.0" old_y="900.0" type="right_before_left" weight_num="4.0" weight_sum="1.30093592513" x="1198.54638583" x_displacement_sum="-1.45361416897" y="895.201461185" y_displacement_sum="-4.79853881532" />
    <node avg_slowdown_ratio="0.32343412527" id="node_08x16" junction="True" old_x="800.0" old_y="1600.0" type="right_before_left" weight_num="4.0" weight_sum="1.29373650108" x="790.469708417" x_displacement_sum="-9.53029158314" y="1607.19246653" y_displacement_sum="7.19246652884" />
    <node avg_slowdown_ratio="0.32037437005" id="node_12x10" junction="True" old_x="1200.0" old_y="1000.0" type="right_before_left" weight_num="4.0" weight_sum="1.2814974802" x="1197.75001161" x_displacement_sum="-2.24998839065" y="996.057928121" y_displacement_sum="-3.94207187949" />
    <node avg_slowdown_ratio="0.316534677226" id="node_12x05" junction="True" old_x="1200.0" old_y="500.0" type="right_before_left" weight_num="3.0" weight_sum="0.949604031678" x="1211.75600477" x_displacement_sum="11.7560047673" y="477.992636231" y_displacement_sum="-22.0073637694" />
    <node avg_slowdown_ratio="0.3126349892" id="node_07x09" junction="True" old_x="700.0" old_y="900.0" type="right_before_left" weight_num="4.0" weight_sum="1.2505399568" x="696.870680791" x_displacement_sum="-3.1293192095" y="897.053602565" y_displacement_sum="-2.9463974355" />
    <node avg_slowdown_ratio="0.312275017998" id="node_06x14" junction="True" old_x="600.0" old_y="1400.0" type="right_before_left" weight_num="4.0" weight_sum="1.24910007199" x="605.249067088" x_displacement_sum="5.24906708786" y="1396.73851999" y_displacement_sum="-3.26148001386" />
    <node avg_slowdown_ratio="0.312215022798" id="node_00x13" junction="True" old_x="0.0" old_y="1300.0" type="right_before_left" weight_num="3.0" weight_sum="0.936645068395" x="-6.39515387735" x_displacement_sum="-6.39515387735" y="1277.02382034" y_displacement_sum="-22.97617966" />
    <node avg_slowdown_ratio="0.311915046795" id="node_10x12" junction="True" old_x="1000.0" old_y="1200.0" type="right_before_left" weight_num="4.0" weight_sum="1.24766018718" x="997.587359606" x_displacement_sum="-2.41264039356" y="1208.17480209" y_displacement_sum="8.17480209428" />
    <node avg_slowdown_ratio="0.310475161988" id="node_04x09" junction="True" old_x="400.0" old_y="900.0" type="right_before_left" weight_num="4.0" weight_sum="1.24190064795" x="384.077754736" x_displacement_sum="-15.9222452642" y="894.34492627" y_displacement_sum="-5.65507372954" />
    <node avg_slowdown_ratio="0.306935445164" id="node_08x09" junction="True" old_x="800.0" old_y="900.0" type="right_before_left" weight_num="3.0" weight_sum="0.920806335493" x="792.904705906" x_displacement_sum="-7.09529409355" y="898.848677335" y_displacement_sum="-1.15132266534" />
    <node avg_slowdown_ratio="0.30621550276" id="node_15x05" junction="True" old_x="1500.0" old_y="500.0" type="right_before_left" weight_num="3.0" weight_sum="0.91864650828" x="1502.7949015" x_displacement_sum="2.79490150158" y="491.414567559" y_displacement_sum="-8.58543244114" />
    <node avg_slowdown_ratio="0.30471562275" id="node_06x05" junction="True" old_x="600.0" old_y="500.0" type="right_before_left" weight_num="4.0" weight_sum="1.218862491" x="590.311618899" x_displacement_sum="-9.68838110148" y="495.31600786" y_displacement_sum="-4.68399214024" />
    <node avg_slowdown_ratio="0.303995680345" id="node_12x08" junction="True" old_x="1200.0" old_y="800.0" type="right_before_left" weight_num="4.0" weight_sum="1.21598272138" x="1213.09929231" x_displacement_sum="13.0992923147" y="793.63273245" y_displacement_sum="-6.36726754987" />
    <node avg_slowdown_ratio="0.30327573794" id="node_12x07" junction="True" old_x="1200.0" old_y="700.0" type="right_before_left" weight_num="4.0" weight_sum="1.21310295176" x="1200.17635473" x_displacement_sum="0.176354728243" y="712.103925266" y_displacement_sum="12.1039252663" />
    <node avg_slowdown_ratio="0.300455963523" id="node_01x08" junction="True" old_x="100.0" old_y="800.0" type="right_before_left" weight_num="3.0" weight_sum="0.901367890569" x="91.6610569158" x_displacement_sum="-8.33894308415" y="782.415842208" y_displacement_sum="-17.5841577915" />
    <node avg_slowdown_ratio="0.297516198705" id="node_04x14" junction="True" old_x="400.0" old_y="1400.0" type="right_before_left" weight_num="4.0" weight_sum="1.19006479482" x="390.34635139" x_displacement_sum="-9.65364860962" y="1395.61574584" y_displacement_sum="-4.38425415636" />
    <node avg_slowdown_ratio="0.2967962563" id="node_06x09" junction="True" old_x="600.0" old_y="900.0" type="right_before_left" weight_num="4.0" weight_sum="1.1871850252" x="586.530514554" x_displacement_sum="-13.4694854456" y="897.181019161" y_displacement_sum="-2.81898083898" />
    <node avg_slowdown_ratio="0.293196544278" id="node_09x10" junction="True" old_x="900.0" old_y="1000.0" type="right_before_left" weight_num="4.0" weight_sum="1.17278617711" x="883.355751075" x_displacement_sum="-16.6442489251" y="1025.64682246" y_displacement_sum="25.6468224608" />
    <node avg_slowdown_ratio="0.292776577874" id="node_08x15" junction="True" old_x="800.0" old_y="1500.0" type="right_before_left" weight_num="3.0" weight_sum="0.878329733622" x="812.007448882" x_displacement_sum="12.0074488823" y="1483.88980003" y_displacement_sum="-16.1101999694" />
    <node avg_slowdown_ratio="0.291816654668" id="node_00x14" junction="True" old_x="0.0" old_y="1400.0" type="right_before_left" weight_num="3.0" weight_sum="0.875449964003" x="-6.00603073253" x_displacement_sum="-6.00603073253" y="1429.26887304" y_displacement_sum="29.2688730407" />
    <node avg_slowdown_ratio="0.291576673866" id="node_00x05" junction="True" old_x="0.0" old_y="500.0" type="right_before_left" weight_num="2.0" weight_sum="0.583153347732" x="0.0" x_displacement_sum="0.0" y="511.116037074" y_displacement_sum="11.1160370744" />
    <node avg_slowdown_ratio="0.29067674586" id="node_04x10" junction="True" old_x="400.0" old_y="1000.0" type="right_before_left" weight_num="4.0" weight_sum="1.16270698344" x="402.565234081" x_displacement_sum="2.56523408115" y="1014.64635093" y_displacement_sum="14.6463509335" />
    <node avg_slowdown_ratio="0.289896808255" id="node_08x03" junction="True" old_x="800.0" old_y="300.0" type="right_before_left" weight_num="3.0" weight_sum="0.869690424765" x="800.0" x_displacement_sum="0.0" y="299.322670954" y_displacement_sum="-0.677329046324" />
    <node avg_slowdown_ratio="0.289596832252" id="node_12x16" junction="True" old_x="1200.0" old_y="1600.0" type="right_before_left" weight_num="4.0" weight_sum="1.15838732901" x="1194.88139567" x_displacement_sum="-5.1186043331" y="1613.04837494" y_displacement_sum="13.0483749351" />
    <node avg_slowdown_ratio="0.288876889847" id="node_14x02" junction="True" old_x="1400.0" old_y="200.0" type="right_before_left" weight_num="4.0" weight_sum="1.15550755939" x="1405.25246275" x_displacement_sum="5.2524627483" y="191.164211747" y_displacement_sum="-8.83578825285" />
    <node avg_slowdown_ratio="0.28743700504" id="node_17x09" junction="True" old_x="1700.0" old_y="900.0" type="right_before_left" weight_num="4.0" weight_sum="1.14974802016" x="1711.13898092" x_displacement_sum="11.1389809203" y="892.801666589" y_displacement_sum="-7.19833341112" />
    <node avg_slowdown_ratio="0.287257019438" id="node_00x17" junction="True" old_x="0.0" old_y="1700.0" type="right_before_left" weight_num="3.0" weight_sum="0.861771058315" x="0.0" x_displacement_sum="0.0" y="1685.95555506" y_displacement_sum="-14.044444941" />
    <node avg_slowdown_ratio="0.287077033837" id="node_01x09" junction="True" old_x="100.0" old_y="900.0" type="right_before_left" weight_num="4.0" weight_sum="1.14830813535" x="95.4684253846" x_displacement_sum="-4.53157461545" y="925.720534583" y_displacement_sum="25.7205345834" />
    <node avg_slowdown_ratio="0.286177105833" id="node_08x13" junction="True" old_x="800.0" old_y="1300.0" type="right_before_left" weight_num="4.0" weight_sum="1.14470842333" x="798.736756342" x_displacement_sum="-1.2632436585" y="1303.43237317" y_displacement_sum="3.4323731729" />
    <node avg_slowdown_ratio="0.286177105832" id="node_02x00" junction="True" old_x="200.0" old_y="0.0" type="right_before_left" weight_num="2.0" weight_sum="0.572354211663" x="187.338577566" x_displacement_sum="-12.6614224344" y="-10.0070519932" y_displacement_sum="-10.0070519932" />
    <node avg_slowdown_ratio="0.28599712023" id="node_14x13" junction="True" old_x="1400.0" old_y="1300.0" type="right_before_left" weight_num="4.0" weight_sum="1.14398848092" x="1423.01116192" x_displacement_sum="23.0111619168" y="1286.24668333" y_displacement_sum="-13.7533166748" />
    <node avg_slowdown_ratio="0.28581713463" id="node_06x12" junction="True" old_x="600.0" old_y="1200.0" type="right_before_left" weight_num="4.0" weight_sum="1.14326853852" x="594.974449908" x_displacement_sum="-5.02555009163" y="1189.48279301" y_displacement_sum="-10.5172069874" />
    <node avg_slowdown_ratio="0.28455723542" id="node_17x10" junction="True" old_x="1700.0" old_y="1000.0" type="right_before_left" weight_num="4.0" weight_sum="1.13822894168" x="1704.23907864" x_displacement_sum="4.23907864354" y="1017.50419886" y_displacement_sum="17.5041988629" />
    <node avg_slowdown_ratio="0.283657307415" id="node_15x06" junction="True" old_x="1500.0" old_y="600.0" type="right_before_left" weight_num="4.0" weight_sum="1.13462922966" x="1501.08033413" x_displacement_sum="1.08033412784" y="622.854261409" y_displacement_sum="22.8542614092" />
    <node avg_slowdown_ratio="0.283177345813" id="node_19x04" junction="True" old_x="1900.0" old_y="400.0" type="right_before_left" weight_num="3.0" weight_sum="0.849532037438" x="1904.92712003" x_displacement_sum="4.92712003407" y="400.616574994" y_displacement_sum="0.616574994111" />
    <node avg_slowdown_ratio="0.28275737941" id="node_17x05" junction="True" old_x="1700.0" old_y="500.0" type="right_before_left" weight_num="4.0" weight_sum="1.13102951764" x="1695.51515461" x_displacement_sum="-4.4848453912" y="498.618497107" y_displacement_sum="-1.3815028934" />
    <node avg_slowdown_ratio="0.282217422605" id="node_08x12" junction="True" old_x="800.0" old_y="1200.0" type="right_before_left" weight_num="4.0" weight_sum="1.12886969042" x="797.230621096" x_displacement_sum="-2.76937890389" y="1178.88037321" y_displacement_sum="-21.1196267903" />
    <node avg_slowdown_ratio="0.2813174946" id="node_12x13" junction="True" old_x="1200.0" old_y="1300.0" type="right_before_left" weight_num="4.0" weight_sum="1.1252699784" x="1170.43122434" x_displacement_sum="-29.5687756588" y="1323.27559269" y_displacement_sum="23.2755926901" />
    <node avg_slowdown_ratio="0.280777537797" id="node_11x02" junction="True" old_x="1100.0" old_y="200.0" type="right_before_left" weight_num="4.0" weight_sum="1.12311015119" x="1090.88160743" x_displacement_sum="-9.11839257453" y="188.194135932" y_displacement_sum="-11.8058640681" />
    <node avg_slowdown_ratio="0.280057595393" id="node_11x06" junction="True" old_x="1100.0" old_y="600.0" type="right_before_left" weight_num="2.0" weight_sum="0.560115190785" x="1061.08512776" x_displacement_sum="-38.914872239" y="597.402671119" y_displacement_sum="-2.59732888084" />
    <node avg_slowdown_ratio="0.27987760979" id="node_05x14" junction="True" old_x="500.0" old_y="1400.0" type="right_before_left" weight_num="4.0" weight_sum="1.11951043916" x="495.513590176" x_displacement_sum="-4.48640982416" y="1395.32475346" y_displacement_sum="-4.67524653605" />
    <node avg_slowdown_ratio="0.27987760979" id="node_11x08" junction="True" old_x="1100.0" old_y="800.0" type="right_before_left" weight_num="4.0" weight_sum="1.11951043916" x="1081.02823351" x_displacement_sum="-18.9717664949" y="808.54250547" y_displacement_sum="8.54250547045" />
    <node avg_slowdown_ratio="0.279817614591" id="node_09x04" junction="True" old_x="900.0" old_y="400.0" type="right_before_left" weight_num="3.0" weight_sum="0.839452843773" x="909.128668056" x_displacement_sum="9.12866805574" y="384.271778639" y_displacement_sum="-15.7282213609" />
    <node avg_slowdown_ratio="0.278617710583" id="node_07x15" junction="True" old_x="700.0" old_y="1500.0" type="right_before_left" weight_num="2.0" weight_sum="0.557235421166" x="690.491672272" x_displacement_sum="-9.50832772754" y="1508.95531284" y_displacement_sum="8.95531283584" />
    <node avg_slowdown_ratio="0.277897768179" id="node_13x04" junction="True" old_x="1300.0" old_y="400.0" type="right_before_left" weight_num="3.0" weight_sum="0.833693304536" x="1313.77387732" x_displacement_sum="13.7738773155" y="405.810828178" y_displacement_sum="5.81082817765" />
    <node avg_slowdown_ratio="0.277537796977" id="node_17x03" junction="True" old_x="1700.0" old_y="300.0" type="right_before_left" weight_num="4.0" weight_sum="1.11015118791" x="1703.06490888" x_displacement_sum="3.06490887935" y="302.314288564" y_displacement_sum="2.31428856386" />
    <node avg_slowdown_ratio="0.277177825774" id="node_09x08" junction="True" old_x="900.0" old_y="800.0" type="right_before_left" weight_num="3.0" weight_sum="0.831533477321" x="892.160819522" x_displacement_sum="-7.83918047779" y="778.545837063" y_displacement_sum="-21.4541629368" />
    <node avg_slowdown_ratio="0.276997840173" id="node_02x15" junction="True" old_x="200.0" old_y="1500.0" type="right_before_left" weight_num="4.0" weight_sum="1.10799136069" x="206.661371502" x_displacement_sum="6.66137150232" y="1500.06572254" y_displacement_sum="0.0657225438936" />
    <node avg_slowdown_ratio="0.276817854571" id="node_20x00" junction="True" old_x="2000.0" old_y="0.0" type="right_before_left" weight_num="2.0" weight_sum="0.553635709143" x="2000.0" x_displacement_sum="0.0" y="-7.6480259287" y_displacement_sum="-7.6480259287" />
    <node avg_slowdown_ratio="0.27663786897" id="node_04x05" junction="True" old_x="400.0" old_y="500.0" type="right_before_left" weight_num="4.0" weight_sum="1.10655147588" x="403.978792406" x_displacement_sum="3.97879240588" y="498.430281666" y_displacement_sum="-1.56971833405" />
    <node avg_slowdown_ratio="0.27645788337" id="node_04x12" junction="True" old_x="400.0" old_y="1200.0" type="right_before_left" weight_num="4.0" weight_sum="1.10583153348" x="412.737516552" x_displacement_sum="12.7375165524" y="1207.42486498" y_displacement_sum="7.42486498096" />
    <node avg_slowdown_ratio="0.276457883369" id="node_10x10" junction="True" old_x="1000.0" old_y="1000.0" type="right_before_left" weight_num="3.0" weight_sum="0.829373650108" x="1013.18985598" x_displacement_sum="13.1898559785" y="992.382590411" y_displacement_sum="-7.61740958931" />
    <node avg_slowdown_ratio="0.275917926565" id="node_17x12" junction="True" old_x="1700.0" old_y="1200.0" type="right_before_left" weight_num="4.0" weight_sum="1.10367170626" x="1692.8849118" x_displacement_sum="-7.11508819717" y="1195.7670005" y_displacement_sum="-4.23299950144" />
    <node avg_slowdown_ratio="0.274298056155" id="node_07x10" junction="True" old_x="700.0" old_y="1000.0" type="right_before_left" weight_num="4.0" weight_sum="1.09719222462" x="709.435205444" x_displacement_sum="9.43520544386" y="1018.39051064" y_displacement_sum="18.3905106376" />
    <node avg_slowdown_ratio="0.274118070555" id="node_03x12" junction="True" old_x="300.0" old_y="1200.0" type="right_before_left" weight_num="4.0" weight_sum="1.09647228222" x="290.898558197" x_displacement_sum="-9.10144180295" y="1199.65192153" y_displacement_sum="-0.348078471215" />
    <node avg_slowdown_ratio="0.274058075354" id="node_04x08" junction="True" old_x="400.0" old_y="800.0" type="right_before_left" weight_num="3.0" weight_sum="0.822174226062" x="397.932187" x_displacement_sum="-2.06781299989" y="783.180825529" y_displacement_sum="-16.8191744709" />
    <node avg_slowdown_ratio="0.273938084953" id="node_20x20" junction="True" old_x="2000.0" old_y="2000.0" type="right_before_left" weight_num="2.0" weight_sum="0.547876169906" x="2006.58907505" x_displacement_sum="6.58907505376" y="2008.50488196" y_displacement_sum="8.50488196267" />
<node avg_slowdown_ratio="0.273938084952" id="node_12x04" junction="True" old_x="1200.0" old_y="400.0" type="right_before_left" weight_num="4.0" weight_sum="1.09575233981" x="1195.67995865" x_displacement_sum="-4.32004134899" y="378.26847745" y_displacement_sum="-21.7315225498" />
    <node avg_slowdown_ratio="0.273578113751" id="node_20x05" junction="True" old_x="2000.0" old_y="500.0" type="right_before_left" weight_num="2.0" weight_sum="0.547156227502" x="2000.7911817" x_displacement_sum="0.791181699909" y="500.0" y_displacement_sum="0.0" />
    <node avg_slowdown_ratio="0.272498200145" id="node_13x16" junction="True" old_x="1300.0" old_y="1600.0" type="right_before_left" weight_num="4.0" weight_sum="1.08999280058" x="1313.93642344" x_displacement_sum="13.936423435" y="1606.06232751" y_displacement_sum="6.06232751018" />
    <node avg_slowdown_ratio="0.272378209743" id="node_08x14" junction="True" old_x="800.0" old_y="1400.0" type="right_before_left" weight_num="3.0" weight_sum="0.817134629229" x="805.752036584" x_displacement_sum="5.75203658401" y="1397.83261206" y_displacement_sum="-2.1673879385" />
    <node avg_slowdown_ratio="0.272318214542" id="node_10x19" junction="True" old_x="1000.0" old_y="1900.0" type="right_before_left" weight_num="4.0" weight_sum="1.08927285817" x="993.596191263" x_displacement_sum="-6.40380873723" y="1889.52903979" y_displacement_sum="-10.4709602063" />
    <node avg_slowdown_ratio="0.272138228943" id="node_12x18" junction="True" old_x="1200.0" old_y="1800.0" type="right_before_left" weight_num="4.0" weight_sum="1.08855291577" x="1199.78688802" x_displacement_sum="-0.213111982274" y="1797.79849436" y_displacement_sum="-2.20150564372" />
    <node avg_slowdown_ratio="0.27195824334" id="node_05x18" junction="True" old_x="500.0" old_y="1800.0" type="right_before_left" weight_num="4.0" weight_sum="1.08783297336" x="506.768148274" x_displacement_sum="6.76814827394" y="1807.69585437" y_displacement_sum="7.69585436916" />
    <node avg_slowdown_ratio="0.27189824814" id="node_07x05" junction="True" old_x="700.0" old_y="500.0" type="right_before_left" weight_num="3.0" weight_sum="0.81569474442" x="688.467598212" x_displacement_sum="-11.5324017883" y="498.081398451" y_displacement_sum="-1.9186015494" />
    <node avg_slowdown_ratio="0.271658267338" id="node_08x17" junction="True" old_x="800.0" old_y="1700.0" type="right_before_left" weight_num="3.0" weight_sum="0.814974802015" x="788.523317242" x_displacement_sum="-11.4766827583" y="1727.83182722" y_displacement_sum="27.8318272233" />
    <node avg_slowdown_ratio="0.271598272137" id="node_13x10" junction="True" old_x="1300.0" old_y="1000.0" type="right_before_left" weight_num="4.0" weight_sum="1.08639308855" x="1328.12418742" x_displacement_sum="28.124187419" y="995.836953647" y_displacement_sum="-4.16304635338" />
    <node avg_slowdown_ratio="0.271178305736" id="node_05x09" junction="True" old_x="500.0" old_y="900.0" type="right_before_left" weight_num="3.0" weight_sum="0.813534917207" x="504.18457394" x_displacement_sum="4.1845739399" y="902.449273471" y_displacement_sum="2.44927347125" />
    <node avg_slowdown_ratio="0.270698344132" id="node_10x03" junction="True" old_x="1000.0" old_y="300.0" type="right_before_left" weight_num="2.0" weight_sum="0.541396688265" x="984.683988946" x_displacement_sum="-15.316011054" y="293.120842821" y_displacement_sum="-6.87915717876" />
    <node avg_slowdown_ratio="0.270218382529" id="node_12x15" junction="True" old_x="1200.0" old_y="1500.0" type="right_before_left" weight_num="3.0" weight_sum="0.810655147588" x="1197.08267325" x_displacement_sum="-2.91732675399" y="1491.32712939" y_displacement_sum="-8.67287060944" />
    <node avg_slowdown_ratio="0.269498440125" id="node_11x03" junction="True" old_x="1100.0" old_y="300.0" type="right_before_left" weight_num="3.0" weight_sum="0.808495320375" x="1106.96094461" x_displacement_sum="6.9609446126" y="305.314549016" y_displacement_sum="5.31454901639" />
    <node avg_slowdown_ratio="0.269438444925" id="node_01x19" junction="True" old_x="100.0" old_y="1900.0" type="right_before_left" weight_num="4.0" weight_sum="1.0777537797" x="91.9462778778" x_displacement_sum="-8.0537221222" y="1894.11317664" y_displacement_sum="-5.88682335577" />
    <node avg_slowdown_ratio="0.269438444925" id="node_11x14" junction="True" old_x="1100.0" old_y="1400.0" type="right_before_left" weight_num="4.0" weight_sum="1.0777537797" x="1088.94929233" x_displacement_sum="-11.050707669" y="1393.44238626" y_displacement_sum="-6.557613742" />
    <node avg_slowdown_ratio="0.268898488121" id="node_13x20" junction="True" old_x="1300.0" old_y="2000.0" type="right_before_left" weight_num="2.0" weight_sum="0.537796976242" x="1309.25933877" x_displacement_sum="9.25933876781" y="2007.74365627" y_displacement_sum="7.74365627055" />
    <node avg_slowdown_ratio="0.26871850252" id="node_09x07" junction="True" old_x="900.0" old_y="700.0" type="right_before_left" weight_num="4.0" weight_sum="1.07487401008" x="899.901274542" x_displacement_sum="-0.0987254576699" y="695.062960024" y_displacement_sum="-4.93703997585" />
    <node avg_slowdown_ratio="0.268538516919" id="node_10x00" junction="True" old_x="1000.0" old_y="0.0" type="right_before_left" weight_num="2.0" weight_sum="0.537077033837" x="990.834599008" x_displacement_sum="-9.16540099195" y="-9.5405200772" y_displacement_sum="-9.5405200772" />
    <node avg_slowdown_ratio="0.268298536117" id="node_13x00" junction="True" old_x="1300.0" old_y="0.0" type="right_before_left" weight_num="3.0" weight_sum="0.804895608351" x="1300.0" x_displacement_sum="0.0" y="-4.33315803278" y_displacement_sum="-4.33315803278" />
    <node avg_slowdown_ratio="0.268058555315" id="node_14x06" junction="True" old_x="1400.0" old_y="600.0" type="right_before_left" weight_num="3.0" weight_sum="0.804175665946" x="1393.01595639" x_displacement_sum="-6.98404361447" y="601.289939469" y_displacement_sum="1.28993946854" />
    <node avg_slowdown_ratio="0.267998560115" id="node_02x14" junction="True" old_x="200.0" old_y="1400.0" type="right_before_left" weight_num="4.0" weight_sum="1.07199424046" x="196.676307786" x_displacement_sum="-3.32369221435" y="1387.63074931" y_displacement_sum="-12.3692506869" />
    <node avg_slowdown_ratio="0.267818574515" id="node_02x16" junction="True" old_x="200.0" old_y="1600.0" type="right_before_left" weight_num="4.0" weight_sum="1.07127429806" x="199.702536136" x_displacement_sum="-0.29746386359" y="1617.98444861" y_displacement_sum="17.98444861" />
    <node avg_slowdown_ratio="0.267818574514" id="node_13x12" junction="True" old_x="1300.0" old_y="1200.0" type="right_before_left" weight_num="2.0" weight_sum="0.535637149028" x="1340.23330624" x_displacement_sum="40.2333062381" y="1178.22339704" y_displacement_sum="-21.7766029582" />
    <node avg_slowdown_ratio="0.267458603312" id="node_20x03" junction="True" old_x="2000.0" old_y="300.0" type="right_before_left" weight_num="2.0" weight_sum="0.534917206623" x="2001.40775669" x_displacement_sum="1.40775669402" y="300.533128499" y_displacement_sum="0.533128498553" />
    <node avg_slowdown_ratio="0.26709863211" id="node_11x12" junction="True" old_x="1100.0" old_y="1200.0" type="right_before_left" weight_num="4.0" weight_sum="1.06839452844" x="1088.25960939" x_displacement_sum="-11.740390614" y="1208.84177447" y_displacement_sum="8.8417744652" />
    <node avg_slowdown_ratio="0.26709863211" id="node_13x02" junction="True" old_x="1300.0" old_y="200.0" type="right_before_left" weight_num="4.0" weight_sum="1.06839452844" x="1287.10347536" x_displacement_sum="-12.8965246375" y="198.522329855" y_displacement_sum="-1.47767014487" />
    <node avg_slowdown_ratio="0.26709863211" id="node_14x14" junction="True" old_x="1400.0" old_y="1400.0" type="right_before_left" weight_num="3.0" weight_sum="0.801295896329" x="1406.36879387" x_displacement_sum="6.36879386535" y="1408.30811667" y_displacement_sum="8.30811666901" />
    <node avg_slowdown_ratio="0.266858651308" id="node_11x07" junction="True" old_x="1100.0" old_y="700.0" type="right_before_left" weight_num="3.0" weight_sum="0.800575953924" x="1071.92290598" x_displacement_sum="-28.0770940248" y="706.475433849" y_displacement_sum="6.47543384883" />
    <node avg_slowdown_ratio="0.266738660907" id="node_05x15" junction="True" old_x="500.0" old_y="1500.0" type="right_before_left" weight_num="4.0" weight_sum="1.06695464363" x="497.29144283" x_displacement_sum="-2.70855717002" y="1517.67810753" y_displacement_sum="17.6781075319" />
    <node avg_slowdown_ratio="0.266738660907" id="node_09x16" junction="True" old_x="900.0" old_y="1600.0" type="right_before_left" weight_num="4.0" weight_sum="1.06695464363" x="928.054834543" x_displacement_sum="28.0548345426" y="1594.37591061" y_displacement_sum="-5.62408939033" />
    <node avg_slowdown_ratio="0.266378689705" id="node_13x07" junction="True" old_x="1300.0" old_y="700.0" type="right_before_left" weight_num="4.0" weight_sum="1.06551475882" x="1325.8840541" x_displacement_sum="25.8840541024" y="713.818460295" y_displacement_sum="13.8184602953" />
    <node avg_slowdown_ratio="0.266198704105" id="node_04x11" junction="True" old_x="400.0" old_y="1100.0" type="right_before_left" weight_num="4.0" weight_sum="1.06479481642" x="406.896678506" x_displacement_sum="6.89667850646" y="1104.80954801" y_displacement_sum="4.80954801402" />
    <node avg_slowdown_ratio="0.266138708903" id="node_07x08" junction="True" old_x="700.0" old_y="800.0" type="right_before_left" weight_num="3.0" weight_sum="0.79841612671" x="707.76754727" x_displacement_sum="7.76754727022" y="773.363870584" y_displacement_sum="-26.6361294155" />
    <node avg_slowdown_ratio="0.266018718502" id="node_00x18" junction="True" old_x="0.0" old_y="1800.0" type="right_before_left" weight_num="2.0" weight_sum="0.532037437005" x="-5.32095001083" x_displacement_sum="-5.32095001083" y="1821.47918738" y_displacement_sum="21.4791873818" />
    <node avg_slowdown_ratio="0.266018718502" id="node_15x10" junction="True" old_x="1500.0" old_y="1000.0" type="right_before_left" weight_num="4.0" weight_sum="1.06407487401" x="1502.62516937" x_displacement_sum="2.62516937456" y="1005.95727018" y_displacement_sum="5.95727017527" />
    <node avg_slowdown_ratio="0.265838732902" id="node_11x04" junction="True" old_x="1100.0" old_y="400.0" type="right_before_left" weight_num="4.0" weight_sum="1.06335493161" x="1089.97164871" x_displacement_sum="-10.0283512908" y="403.560006287" y_displacement_sum="3.56000628674" />
    <node avg_slowdown_ratio="0.265418766499" id="node_04x20" junction="True" old_x="400.0" old_y="2000.0" type="right_before_left" weight_num="3.0" weight_sum="0.796256299496" x="394.335854401" x_displacement_sum="-5.66414559861" y="2000.0" y_displacement_sum="0.0" />
    <node avg_slowdown_ratio="0.265418766498" id="node_11x10" junction="True" old_x="1100.0" old_y="1000.0" type="right_before_left" weight_num="3.0" weight_sum="0.796256299495" x="1082.11909476" x_displacement_sum="-17.8809052372" y="993.333737713" y_displacement_sum="-6.66626228695" />
    <node avg_slowdown_ratio="0.265298776098" id="node_06x15" junction="True" old_x="600.0" old_y="1500.0" type="right_before_left" weight_num="4.0" weight_sum="1.06119510439" x="595.761199575" x_displacement_sum="-4.23880042495" y="1525.55110998" y_displacement_sum="25.5511099773" />
    <node avg_slowdown_ratio="0.265178785697" id="node_07x14" junction="True" old_x="700.0" old_y="1400.0" type="right_before_left" weight_num="3.0" weight_sum="0.795536357091" x="712.934191032" x_displacement_sum="12.9341910322" y="1393.2989292" y_displacement_sum="-6.7010708032" />