<?xml version='1.0' encoding='UTF-8'?>
<edges xmlns:xsi="http://www.w3.org/2001/XMLSchema-instance" version="0.27" xsi:noNamespaceSchemaLocation="http://sumo.dlr.de/xsd/edges_file.xsd">
    <edge disallow="tram rail_urban rail rail_electric ship" dump_speed="10.4" from="node_00x01" id="xedge_00x02" len="100.0" numLanes="1" priority="5" slowdown="3.49" slowdown_ratio="0.251259899208" speed="13.89" to="node_00x02" type="highway.undefined" />
    <edge disallow="tram rail_urban rail rail_electric ship" dump_speed="10.12" from="node_00x02" id="xedge_00x03" len="100.0" numLanes="1" priority="5" slowdown="3.77" slowdown_ratio="0.271418286537" speed="13.89" to="node_00x01" type="highway.undefined" />
    <edge disallow="tram rail_urban rail rail_electric ship" dump_speed="10.23" from="node_00x02" id="xedge_00x04" len="100.0" numLanes="1" priority="5" slowdown="3.66" slowdown_ratio="0.263498920086" speed="13.89" to="node_00x03" type="highway.undefined" />
    <edge disallow="tram rail_urban rail rail_electric ship" dump_speed="10.46" from="node_00x03" id="xedge_00x05" len="100.0" numLanes="1" priority="5" slowdown="3.43" slowdown_ratio="0.24694024478" speed="13.89" to="node_00x02" type="highway.undefined" />
    <edge disallow="tram rail_urban rail rail_electric ship" dump_speed="10.32" from="node_00x03" id="xedge_00x06" len="100.0" numLanes="1" priority="5" slowdown="3.57" slowdown_ratio="0.257019438445" speed="13.89" to="node_00x04" type="highway.undefined" />
    <edge disallow="tram rail_urban rail rail_electric ship" dump_speed="10.55" from="node_00x04" id="xedge_00x07" len="100.0" numLanes="1" priority="5" slowdown="3.34" slowdown_ratio="0.240460763139" speed="13.89" to="node_00x03" type="highway.undefined" />
    <edge disallow="tram rail_urban rail rail_electric ship" dump_speed="10.64" from="node_00x04" id="xedge_00x08" len="100.0" numLanes="1" priority="5" slowdown="3.25" slowdown_ratio="0.233981281497" speed="13.89" to="node_00x05" type="highway.undefined" />
    <edge disallow="tram rail_urban rail rail_electric ship" dump_speed="10.92" from="node_00x05" id="xedge_00x09" len="100.0" numLanes="1" priority="5" slowdown="2.97" slowdown_ratio="0.213822894168" speed="13.89" to="node_00x04" type="highway.undefined" />
    <edge disallow="tram rail_urban rail rail_electric ship" dump_speed="10.84" from="node_00x06" id="xedge_00x12" len="100.0" numLanes="1" priority="5" slowdown="3.05" slowdown_ratio="0.219582433405" speed="13.89" to="node_00x07" type="highway.undefined" />
    <edge disallow="tram rail_urban rail rail_electric ship" dump_speed="10.06" from="node_00x07" id="xedge_00x13" len="100.0" numLanes="1" priority="5" slowdown="3.83" slowdown_ratio="0.275737940965" speed="13.89" to="node_00x06" type="highway.undefined" />
    <edge disallow="tram rail_urban rail rail_electric ship" dump_speed="10.43" from="node_00x07" id="xedge_00x14" len="100.0" numLanes="1" priority="5" slowdown="3.46" slowdown_ratio="0.249100071994" speed="13.89" to="node_00x08" type="highway.undefined" />
    <edge disallow="tram rail_urban rail rail_electric ship" dump_speed="10.34" from="node_00x08" id="xedge_00x15" len="100.0" numLanes="1" priority="5" slowdown="3.55" slowdown_ratio="0.255579553636" speed="13.89" to="node_00x07" type="highway.undefined" />
    <edge disallow="tram rail_urban rail rail_electric ship" dump_speed="10.13" from="node_00x09" id="xedge_00x18" len="100.0" numLanes="1" priority="5" slowdown="3.76" slowdown_ratio="0.270698344132" speed="13.89" to="node_00x10" type="highway.undefined" />
    <edge disallow="tram rail_urban rail rail_electric ship" dump_speed="10.38" from="node_00x10" id="xedge_00x19" len="100.0" numLanes="1" priority="5" slowdown="3.51" slowdown_ratio="0.252699784017" speed="13.89" to="node_00x09" type="highway.undefined" />
    <edge disallow="tram rail_urban rail rail_electric ship" dump_speed="10.58" from="node_00x10" id="xedge_00x20" len="100.0" numLanes="1" priority="5" slowdown="3.31" slowdown_ratio="0.238300935925" speed="13.89" to="node_00x11" type="highway.undefined" />
    <edge disallow="tram rail_urban rail rail_electric ship" dump_speed="10.59" from="node_00x11" id="xedge_00x21" len="100.0" numLanes="1" priority="5" slowdown="3.3" slowdown_ratio="0.237580993521" speed="13.89" to="node_00x10" type="highway.undefined" />
    <edge disallow="tram rail_urban rail rail_electric ship" dump_speed="10.72" from="node_00x11" id="xedge_00x22" len="100.0" numLanes="1" priority="5" slowdown="3.17" slowdown_ratio="0.228221742261" speed="13.89" to="node_00x12" type="highway.undefined" />
    <edge disallow="tram rail_urban rail rail_electric ship" dump_speed="10.4" from="node_00x12" id="xedge_00x23" len="100.0" numLanes="1" priority="5" slowdown="3.49" slowdown_ratio="0.251259899208" speed="13.89" to="node_00x11" type="highway.undefined" />
    <edge disallow="tram rail_urban rail rail_electric ship" dump_speed="10.54" from="node_00x12" id="xedge_00x24" len="100.0" numLanes="1" priority="5" slowdown="3.35" slowdown_ratio="0.241180705544" speed="13.89" to="node_00x13" type="highway.undefined" />
    <edge disallow="tram rail_urban rail rail_electric ship" dump_speed="10.29" from="node_00x13" id="xedge_00x25" len="100.0" numLanes="1" priority="5" slowdown="3.6" slowdown_ratio="0.259179265659" speed="13.89" to="node_00x12" type="highway.undefined" />
    <edge disallow="tram rail_urban rail rail_electric ship" dump_speed="10.69" from="node_00x13" id="xedge_00x26" len="100.0" numLanes="1" priority="5" slowdown="3.2" slowdown_ratio="0.230381569474" speed="13.89" to="node_00x14" type="highway.undefined" />
    <edge disallow="tram rail_urban rail rail_electric ship" dump_speed="10.66" from="node_00x14" id="xedge_00x27" len="100.0" numLanes="1" priority="5" slowdown="3.23" slowdown_ratio="0.232541396688" speed="13.89" to="node_00x13" type="highway.undefined" />
    <edge disallow="tram rail_urban rail rail_electric ship" dump_speed="10.53" from="node_00x14" id="xedge_00x28" len="100.0" numLanes="1" priority="5" slowdown="3.36" slowdown_ratio="0.241900647948" speed="13.89" to="node_00x15" type="highway.undefined" />
    <edge disallow="tram rail_urban rail rail_electric ship" dump_speed="10.52" from="node_00x15" id="xedge_00x29" len="100.0" numLanes="1" priority="5" slowdown="3.37" slowdown_ratio="0.242620590353" speed="13.89" to="node_00x14" type="highway.undefined" />
    <edge disallow="tram rail_urban rail rail_electric ship" dump_speed="10.5" from="node_00x15" id="xedge_00x30" len="100.0" numLanes="1" priority="5" slowdown="3.39" slowdown_ratio="0.244060475162" speed="13.89" to="node_00x16" type="highway.undefined" />
    <edge disallow="tram rail_urban rail rail_electric ship" dump_speed="10.67" from="node_00x16" id="xedge_00x31" len="100.0" numLanes="1" priority="5" slowdown="3.22" slowdown_ratio="0.231821454284" speed="13.89" to="node_00x15" type="highway.undefined" />
    <edge disallow="tram rail_urban rail rail_electric ship" dump_speed="10.6" from="node_00x16" id="xedge_00x32" len="100.0" numLanes="1" priority="5" slowdown="3.29" slowdown_ratio="0.236861051116" speed="13.89" to="node_00x17" type="highway.undefined" />
    <edge disallow="tram rail_urban rail rail_electric ship" dump_speed="9.91" from="node_00x17" id="xedge_00x33" len="100.0" numLanes="1" priority="5" slowdown="3.98" slowdown_ratio="0.286537077034" speed="13.89" to="node_00x16" type="highway.undefined" />
    <edge disallow="tram rail_urban rail rail_electric ship" dump_speed="10.83" from="node_00x17" id="xedge_00x34" len="100.0" numLanes="1" priority="5" slowdown="3.06" slowdown_ratio="0.22030237581" speed="13.89" to="node_00x18" type="highway.undefined" />
    <edge disallow="tram rail_urban rail rail_electric ship" dump_speed="10.36" from="node_00x18" id="xedge_00x35" len="100.0" numLanes="1" priority="5" slowdown="3.53" slowdown_ratio="0.254139668826" speed="13.89" to="node_00x17" type="highway.undefined" />
    <edge disallow="tram rail_urban rail rail_electric ship" dump_speed="10.9" from="node_00x18" id="xedge_00x36" len="100.0" numLanes="1" priority="5" slowdown="2.99" slowdown_ratio="0.215262778978" speed="13.89" to="node_00x19" type="highway.undefined" />
    <edge disallow="tram rail_urban rail rail_electric ship" dump_speed="10.45" from="node_00x19" id="xedge_00x37" len="100.0" numLanes="1" priority="5" slowdown="3.44" slowdown_ratio="0.247660187185" speed="13.89" to="node_00x18" type="highway.undefined" />
    <edge disallow="tram rail_urban rail rail_electric ship" dump_speed="10.75" from="node_00x19" id="xedge_00x38" len="100.0" numLanes="1" priority="5" slowdown="3.14" slowdown_ratio="0.226061915047" speed="13.89" to="node_00x20" type="highway.undefined" />
    <edge disallow="tram rail_urban rail rail_electric ship" dump_speed="10.1" from="node_00x20" id="xedge_00x39" len="100.0" numLanes="1" priority="5" slowdown="3.79" slowdown_ratio="0.272858171346" speed="13.89" to="node_00x19" type="highway.undefined" />
    <edge disallow="tram rail_urban rail rail_electric ship" dump_speed="9.94" from="node_01x00" id="xedge_01x00" len="100.0" numLanes="1" priority="5" slowdown="3.95" slowdown_ratio="0.28437724982" speed="13.89" to="node_01x01" type="highway.undefined" />
    <edge disallow="tram rail_urban rail rail_electric ship" dump_speed="10.05" from="node_01x01" id="xedge_01x01" len="100.0" numLanes="1" priority="5" slowdown="3.84" slowdown_ratio="0.276457883369" speed="13.89" to="node_01x00" type="highway.undefined" />
    <edge disallow="tram rail_urban rail rail_electric ship" dump_speed="10.73" from="node_01x01" id="xedge_01x02" len="100.0" numLanes="1" priority="5" slowdown="3.16" slowdown_ratio="0.227501799856" speed="13.89" to="node_01x02" type="highway.undefined" />
    <edge disallow="tram rail_urban rail rail_electric ship" dump_speed="10.07" from="node_01x02" id="xedge_01x03" len="100.0" numLanes="1" priority="5" slowdown="3.82" slowdown_ratio="0.27501799856" speed="13.89" to="node_01x01" type="highway.undefined" />
    <edge disallow="tram rail_urban rail rail_electric ship" dump_speed="9.96" from="node_01x02" id="xedge_01x04" len="100.0" numLanes="1" priority="5" slowdown="3.93" slowdown_ratio="0.282937365011" speed="13.89" to="node_01x03" type="highway.undefined" />
    <edge disallow="tram rail_urban rail rail_electric ship" dump_speed="10.89" from="node_01x03" id="xedge_01x05" len="100.0" numLanes="1" priority="5" slowdown="3.0" slowdown_ratio="0.215982721382" speed="13.89" to="node_01x02" type="highway.undefined" />
    <edge disallow="tram rail_urban rail rail_electric ship" dump_speed="10.58" from="node_01x03" id="xedge_01x06" len="100.0" numLanes="1" priority="5" slowdown="3.31" slowdown_ratio="0.238300935925" speed="13.89" to="node_01x04" type="highway.undefined" />
    <edge disallow="tram rail_urban rail rail_electric ship" dump_speed="10.68" from="node_01x04" id="xedge_01x07" len="100.0" numLanes="1" priority="5" slowdown="3.21" slowdown_ratio="0.231101511879" speed="13.89" to="node_01x03" type="highway.undefined" />
    <edge disallow="tram rail_urban rail rail_electric ship" dump_speed="10.72" from="node_01x04" id="xedge_01x08" len="100.0" numLanes="1" priority="5" slowdown="3.17" slowdown_ratio="0.228221742261" speed="13.89" to="node_01x05" type="highway.undefined" />
    <edge disallow="tram rail_urban rail rail_electric ship" dump_speed="10.13" from="node_01x05" id="xedge_01x09" len="100.0" numLanes="1" priority="5" slowdown="3.76" slowdown_ratio="0.270698344132" speed="13.89" to="node_01x04" type="highway.undefined" />
    <edge disallow="tram rail_urban rail rail_electric ship" dump_speed="10.46" from="node_01x05" id="xedge_01x10" len="100.0" numLanes="1" priority="5" slowdown="3.43" slowdown_ratio="0.24694024478" speed="13.89" to="node_01x06" type="highway.undefined" />
    <edge disallow="tram rail_urban rail rail_electric ship" dump_speed="10.52" from="node_01x06" id="xedge_01x11" len="100.0" numLanes="1" priority="5" slowdown="3.37" slowdown_ratio="0.242620590353" speed="13.89" to="node_01x05" type="highway.undefined" />
    <edge disallow="tram rail_urban rail rail_electric ship" dump_speed="10.53" from="node_01x06" id="xedge_01x12" len="100.0" numLanes="1" priority="5" slowdown="3.36" slowdown_ratio="0.241900647948" speed="13.89" to="node_01x07" type="highway.undefined" />
    <edge disallow="tram rail_urban rail rail_electric ship" dump_speed="10.62" from="node_01x07" id="xedge_01x13" len="100.0" numLanes="1" priority="5" slowdown="3.27" slowdown_ratio="0.235421166307" speed="13.89" to="node_01x06" type="highway.undefined" />
    <edge disallow="tram rail_urban rail rail_electric ship" dump_speed="10.54" from="node_01x07" id="xedge_01x14" len="100.0" numLanes="1" priority="5" slowdown="3.35" slowdown_ratio="0.241180705544" speed="13.89" to="node_01x08" type="highway.undefined" />
    <edge disallow="tram rail_urban rail rail_electric ship" dump_speed="10.72" from="node_01x08" id="xedge_01x15" len="100.0" numLanes="1" priority="5" slowdown="3.17" slowdown_ratio="0.228221742261" speed="13.89" to="node_01x07" type="highway.undefined" />
    <edge disallow="tram rail_urban rail rail_electric ship" dump_speed="10.42" from="node_01x08" id="xedge_01x16" len="100.0" numLanes="1" priority="5" slowdown="3.47" slowdown_ratio="0.249820014399" speed="13.89" to="node_01x09" type="highway.undefined" />
    <edge disallow="tram rail_urban rail rail_electric ship" dump_speed="10.7" from="node_01x09" id="xedge_01x17" len="100.0" numLanes="1" priority="5" slowdown="3.19" slowdown_ratio="0.22966162707" speed="13.89" to="node_01x08" type="highway.undefined" />
    <edge disallow="tram rail_urban rail rail_electric ship" dump_speed="9.72" from="node_01x09" id="xedge_01x18" len="100.0" numLanes="1" priority="5" slowdown="4.17" slowdown_ratio="0.300215982721" speed="13.89" to="node_01x10" type="highway.undefined" />
    <edge disallow="tram rail_urban rail rail_electric ship" dump_speed="10.53" from="node_01x10" id="xedge_01x19" len="100.0" numLanes="1" priority="5" slowdown="3.36" slowdown_ratio="0.241900647948" speed="13.89" to="node_01x09" type="highway.undefined" />
    <edge disallow="tram rail_urban rail rail_electric ship" dump_speed="10.66" from="node_01x10" id="xedge_01x20" len="100.0" numLanes="1" priority="5" slowdown="3.23" slowdown_ratio="0.232541396688" speed="13.89" to="node_01x11" type="highway.undefined" />
    <edge disallow="tram rail_urban rail rail_electric ship" dump_speed="10.41" from="node_01x11" id="xedge_01x21" len="100.0" numLanes="1" priority="5" slowdown="3.48" slowdown_ratio="0.250539956803" speed="13.89" to="node_01x10" type="highway.undefined" />
    <edge disallow="tram rail_urban rail rail_electric ship" dump_speed="10.75" from="node_01x11" id="xedge_01x22" len="100.0" numLanes="1" priority="5" slowdown="3.14" slowdown_ratio="0.226061915047" speed="13.89" to="node_01x12" type="highway.undefined" />
    <edge disallow="tram rail_urban rail rail_electric ship" dump_speed="10.4" from="node_01x12" id="xedge_01x23" len="100.0" numLanes="1" priority="5" slowdown="3.49" slowdown_ratio="0.251259899208" speed="13.89" to="node_01x11" type="highway.undefined" />
    <edge disallow="tram rail_urban rail rail_electric ship" dump_speed="10.42" from="node_01x12" id="xedge_01x24" len="100.0" numLanes="1" priority="5" slowdown="3.47" slowdown_ratio="0.249820014399" speed="13.89" to="node_01x13" type="highway.undefined" />
    <edge disallow="tram rail_urban rail rail_electric ship" dump_speed="10.47" from="node_01x13" id="xedge_01x25" len="100.0" numLanes="1" priority="5" slowdown="3.42" slowdown_ratio="0.246220302376" speed="13.89" to="node_01x12" type="highway.undefined" />
    <edge disallow="tram rail_urban rail rail_electric ship" dump_speed="10.65" from="node_01x13" id="xedge_01x26" len="100.0" numLanes="1" priority="5" slowdown="3.24" slowdown_ratio="0.233261339093" speed="13.89" to="node_01x14" type="highway.undefined" />
    <edge disallow="tram rail_urban rail rail_electric ship" dump_speed="10.53" from="node_01x14" id="xedge_01x27" len="100.0" numLanes="1" priority="5" slowdown="3.36" slowdown_ratio="0.241900647948" speed="13.89" to="node_01x13" type="highway.undefined" />
    <edge disallow="tram rail_urban rail rail_electric ship" dump_speed="10.68" from="node_01x14" id="xedge_01x28" len="100.0" numLanes="1" priority="5" slowdown="3.21" slowdown_ratio="0.231101511879" speed="13.89" to="node_01x15" type="highway.undefined" />
    <edge disallow="tram rail_urban rail rail_electric ship" dump_speed="10.7" from="node_01x15" id="xedge_01x29" len="100.0" numLanes="1" priority="5" slowdown="3.19" slowdown_ratio="0.22966162707" speed="13.89" to="node_01x14" type="highway.undefined" />
    <edge disallow="tram rail_urban rail rail_electric ship" dump_speed="10.32" from="node_01x15" id="xedge_01x30" len="100.0" numLanes="1" priority="5" slowdown="3.57" slowdown_ratio="0.257019438445" speed="13.89" to="node_01x16" type="highway.undefined" />
    <edge disallow="tram rail_urban rail rail_electric ship" dump_speed="10.66" from="node_01x16" id="xedge_01x31" len="100.0" numLanes="1" priority="5" slowdown="3.23" slowdown_ratio="0.232541396688" speed="13.89" to="node_01x15" type="highway.undefined" />
    <edge disallow="tram rail_urban rail rail_electric ship" dump_speed="10.04" from="node_01x16" id="xedge_01x32" len="100.0" numLanes="1" priority="5" slowdown="3.85" slowdown_ratio="0.277177825774" speed="13.89" to="node_01x17" type="highway.undefined" />
    <edge disallow="tram rail_urban rail rail_electric ship" dump_speed="10.05" from="node_01x17" id="xedge_01x33" len="100.0" numLanes="1" priority="5" slowdown="3.84" slowdown_ratio="0.276457883369" speed="13.89" to="node_01x16" type="highway.undefined" />
    <edge disallow="tram rail_urban rail rail_electric ship" dump_speed="10.36" from="node_01x18" id="xedge_01x36" len="100.0" numLanes="1" priority="5" slowdown="3.53" slowdown_ratio="0.254139668826" speed="13.89" to="node_01x19" type="highway.undefined" />
    <edge disallow="tram rail_urban rail rail_electric ship" dump_speed="10.49" from="node_01x19" id="xedge_01x37" len="100.0" numLanes="1" priority="5" slowdown="3.4" slowdown_ratio="0.244780417567" speed="13.89" to="node_01x18" type="highway.undefined" />
    <edge disallow="tram rail_urban rail rail_electric ship" dump_speed="10.55" from="node_01x19" id="xedge_01x38" len="100.0" numLanes="1" priority="5" slowdown="3.34" slowdown_ratio="0.240460763139" speed="13.89" to="node_01x20" type="highway.undefined" />
    <edge disallow="tram rail_urban rail rail_electric ship" dump_speed="9.96" from="node_01x20" id="xedge_01x39" len="100.0" numLanes="1" priority="5" slowdown="3.93" slowdown_ratio="0.282937365011" speed="13.89" to="node_01x19" type="highway.undefined" />
    <edge disallow="tram rail_urban rail rail_electric ship" dump_speed="10.07" from="node_02x00" id="xedge_02x00" len="100.0" numLanes="1" priority="5" slowdown="3.82" slowdown_ratio="0.27501799856" speed="13.89" to="node_02x01" type="highway.undefined" />
    <edge disallow="tram rail_urban rail rail_electric ship" dump_speed="10.71" from="node_02x01" id="xedge_02x01" len="100.0" numLanes="1" priority="5" slowdown="3.18" slowdown_ratio="0.228941684665" speed="13.89" to="node_02x00" type="highway.undefined" />
    <edge disallow="tram rail_urban rail rail_electric ship" dump_speed="10.07" from="node_02x01" id="xedge_02x02" len="100.0" numLanes="1" priority="5" slowdown="3.82" slowdown_ratio="0.27501799856" speed="13.89" to="node_02x02" type="highway.undefined" />
    <edge disallow="tram rail_urban rail rail_electric ship" dump_speed="10.75" from="node_02x02" id="xedge_02x03" len="100.0" numLanes="1" priority="5" slowdown="3.14" slowdown_ratio="0.226061915047" speed="13.89" to="node_02x01" type="highway.undefined" />
    <edge disallow="tram rail_urban rail rail_electric ship" dump_speed="10.05" from="node_02x02" id="xedge_02x04" len="100.0" numLanes="1" priority="5" slowdown="3.84" slowdown_ratio="0.276457883369" speed="13.89" to="node_02x03" type="highway.undefined" />
    <edge disallow="tram rail_urban rail rail_electric ship" dump_speed="10.5" from="node_02x03" id="xedge_02x05" len="100.0" numLanes="1" priority="5" slowdown="3.39" slowdown_ratio="0.244060475162" speed="13.89" to="node_02x02" type="highway.undefined" />
    <edge disallow="tram rail_urban rail rail_electric ship" dump_speed="10.39" from="node_02x03" id="xedge_02x06" len="100.0" numLanes="1" priority="5" slowdown="3.5" slowdown_ratio="0.251979841613" speed="13.89" to="node_02x04" type="highway.undefined" />
    <edge disallow="tram rail_urban rail rail_electric ship" dump_speed="10.19" from="node_02x04" id="xedge_02x07" len="100.0" numLanes="1" priority="5" slowdown="3.7" slowdown_ratio="0.266378689705" speed="13.89" to="node_02x03" type="highway.undefined" />
    <edge disallow="tram rail_urban rail rail_electric ship" dump_speed="10.76" from="node_02x04" id="xedge_02x08" len="100.0" numLanes="1" priority="5" slowdown="3.13" slowdown_ratio="0.225341972642" speed="13.89" to="node_02x05" type="highway.undefined" />
    <edge disallow="tram rail_urban rail rail_electric ship" dump_speed="10.5" from="node_02x05" id="xedge_02x09" len="100.0" numLanes="1" priority="5" slowdown="3.39" slowdown_ratio="0.244060475162" speed="13.89" to="node_02x04" type="highway.undefined" />
    <edge disallow="tram rail_urban rail rail_electric ship" dump_speed="10.63" from="node_02x05" id="xedge_02x10" len="100.0" numLanes="1" priority="5" slowdown="3.26" slowdown_ratio="0.234701223902" speed="13.89" to="node_02x06" type="highway.undefined" />
    <edge disallow="tram rail_urban rail rail_electric ship" dump_speed="10.55" from="node_02x06" id="xedge_02x11" len="100.0" numLanes="1" priority="5" slowdown="3.34" slowdown_ratio="0.240460763139" speed="13.89" to="node_02x05" type="highway.undefined" />
    <edge disallow="tram rail_urban rail rail_electric ship" dump_speed="10.47" from="node_02x06" id="xedge_02x12" len="100.0" numLanes="1" priority="5" slowdown="3.42" slowdown_ratio="0.246220302376" speed="13.89" to="node_02x07" type="highway.undefined" />
    <edge disallow="tram rail_urban rail rail_electric ship" dump_speed="10.39" from="node_02x07" id="xedge_02x13" len="100.0" numLanes="1" priority="5" slowdown="3.5" slowdown_ratio="0.251979841613" speed="13.89" to="node_02x06" type="highway.undefined" />
    <edge disallow="tram rail_urban rail rail_electric ship" dump_speed="10.61" from="node_02x07" id="xedge_02x14" len="100.0" numLanes="1" priority="5" slowdown="3.28" slowdown_ratio="0.236141108711" speed="13.89" to="node_02x08" type="highway.undefined" />
    <edge disallow="tram rail_urban rail rail_electric ship" dump_speed="10.71" from="node_02x08" id="xedge_02x15" len="100.0" numLanes="1" priority="5" slowdown="3.18" slowdown_ratio="0.228941684665" speed="13.89" to="node_02x07" type="highway.undefined" />
    <edge disallow="tram rail_urban rail rail_electric ship" dump_speed="10.13" from="node_02x08" id="xedge_02x16" len="100.0" numLanes="1" priority="5" slowdown="3.76" slowdown_ratio="0.270698344132" speed="13.89" to="node_02x09" type="highway.undefined" />
    <edge disallow="tram rail_urban rail rail_electric ship" dump_speed="10.6" from="node_02x09" id="xedge_02x17" len="100.0" numLanes="1" priority="5" slowdown="3.29" slowdown_ratio="0.236861051116" speed="13.89" to="node_02x08" type="highway.undefined" />
    <edge disallow="tram rail_urban rail rail_electric ship" dump_speed="10.24" from="node_02x09" id="xedge_02x18" len="100.0" numLanes="1" priority="5" slowdown="3.65" slowdown_ratio="0.262778977682" speed="13.89" to="node_02x10" type="highway.undefined" />
    <edge disallow="tram rail_urban rail rail_electric ship" dump_speed="10.3" from="node_02x10" id="xedge_02x19" len="100.0" numLanes="1" priority="5" slowdown="3.59" slowdown_ratio="0.258459323254" speed="13.89" to="node_02x09" type="highway.undefined" />
    <edge disallow="tram rail_urban rail rail_electric ship" dump_speed="10.54" from="node_02x10" id="xedge_02x20" len="100.0" numLanes="1" priority="5" slowdown="3.35" slowdown_ratio="0.241180705544" speed="13.89" to="node_02x11" type="highway.undefined" />
    <edge disallow="tram rail_urban rail rail_electric ship" dump_speed="10.19" from="node_02x11" id="xedge_02x21" len="100.0" numLanes="1" priority="5" slowdown="3.7" slowdown_ratio="0.266378689705" speed="13.89" to="node_02x10" type="highway.undefined" />
    <edge disallow="tram rail_urban rail rail_electric ship" dump_speed="10.65" from="node_02x11" id="xedge_02x22" len="100.0" numLanes="1" priority="5" slowdown="3.24" slowdown_ratio="0.233261339093" speed="13.89" to="node_02x12" type="highway.undefined" />
    <edge disallow="tram rail_urban rail rail_electric ship" dump_speed="10.14" from="node_02x12" id="xedge_02x23" len="100.0" numLanes="1" priority="5" slowdown="3.75" slowdown_ratio="0.269978401728" speed="13.89" to="node_02x11" type="highway.undefined" />
    <edge disallow="tram rail_urban rail rail_electric ship" dump_speed="10.8" from="node_02x12" id="xedge_02x24" len="100.0" numLanes="1" priority="5" slowdown="3.09" slowdown_ratio="0.222462203024" speed="13.89" to="node_02x13" type="highway.undefined" />
    <edge disallow="tram rail_urban rail rail_electric ship" dump_speed="10.45" from="node_02x13" id="xedge_02x25" len="100.0" numLanes="1" priority="5" slowdown="3.44" slowdown_ratio="0.247660187185" speed="13.89" to="node_02x12" type="highway.undefined" />
    <edge disallow="tram rail_urban rail rail_electric ship" dump_speed="10.39" from="node_02x14" id="xedge_02x28" len="100.0" numLanes="1" priority="5" slowdown="3.5" slowdown_ratio="0.251979841613" speed="13.89" to="node_02x15" type="highway.undefined" />
    <edge disallow="tram rail_urban rail rail_electric ship" dump_speed="10.16" from="node_02x15" id="xedge_02x29" len="100.0" numLanes="1" priority="5" slowdown="3.73" slowdown_ratio="0.268538516919" speed="13.89" to="node_02x14" type="highway.undefined" />
    <edge disallow="tram rail_urban rail rail_electric ship" dump_speed="9.7" from="node_02x15" id="xedge_02x30" len="100.0" numLanes="1" priority="5" slowdown="4.19" slowdown_ratio="0.301655867531" speed="13.89" to="node_02x16" type="highway.undefined" />
    <edge disallow="tram rail_urban rail rail_electric ship" dump_speed="10.13" from="node_02x16" id="xedge_02x31" len="100.0" numLanes="1" priority="5" slowdown="3.76" slowdown_ratio="0.270698344132" speed="13.89" to="node_02x15" type="highway.undefined" />
    <edge disallow="tram rail_urban rail rail_electric ship" dump_speed="10.31" from="node_02x16" id="xedge_02x32" len="100.0" numLanes="1" priority="5" slowdown="3.58" slowdown_ratio="0.25773938085" speed="13.89" to="node_02x17" type="highway.undefined" />
    <edge disallow="tram rail_urban rail rail_electric ship" dump_speed="10.11" from="node_02x17" id="xedge_02x33" len="100.0" numLanes="1" priority="5" slowdown="3.78" slowdown_ratio="0.272138228942" speed="13.89" to="node_02x16" type="highway.undefined" />
    <edge disallow="tram rail_urban rail rail_electric ship" dump_speed="10.56" from="node_02x17" id="xedge_02x34" len="100.0" numLanes="1" priority="5" slowdown="3.33" slowdown_ratio="0.239740820734" speed="13.89" to="node_02x18" type="highway.undefined" />
    <edge disallow="tram rail_urban rail rail_electric ship" dump_speed="10.33" from="node_02x18" id="xedge_02x35" len="100.0" numLanes="1" priority="5" slowdown="3.56" slowdown_ratio="0.25629949604" speed="13.89" to="node_02x17" type="highway.undefined" />
    <edge disallow="tram rail_urban rail rail_electric ship" dump_speed="10.71" from="node_02x18" id="xedge_02x36" len="100.0" numLanes="1" priority="5" slowdown="3.18" slowdown_ratio="0.228941684665" speed="13.89" to="node_02x19" type="highway.undefined" />
    <edge disallow="tram rail_urban rail rail_electric ship" dump_speed="10.55" from="node_02x19" id="xedge_02x37" len="100.0" numLanes="1" priority="5" slowdown="3.34" slowdown_ratio="0.240460763139" speed="13.89" to="node_02x18" type="highway.undefined" />
    <edge disallow="tram rail_urban rail rail_electric ship" dump_speed="9.97" from="node_03x00" id="xedge_03x00" len="100.0" numLanes="1" priority="5" slowdown="3.92" slowdown_ratio="0.282217422606" speed="13.89" to="node_03x01" type="highway.undefined" />
    <edge disallow="tram rail_urban rail rail_electric ship" dump_speed="10.37" from="node_03x01" id="xedge_03x01" len="100.0" numLanes="1" priority="5" slowdown="3.52" slowdown_ratio="0.253419726422" speed="13.89" to="node_03x00" type="highway.undefined" />
    <edge disallow="tram rail_urban rail rail_electric ship" dump_speed="10.2" from="node_03x01" id="xedge_03x02" len="100.0" numLanes="1" priority="5" slowdown="3.69" slowdown_ratio="0.2656587473" speed="13.89" to="node_03x02" type="highway.undefined" />
    <edge disallow="tram rail_urban rail rail_electric ship" dump_speed="10.0" from="node_03x02" id="xedge_03x03" len="100.0" numLanes="1" priority="5" slowdown="3.89" slowdown_ratio="0.280057595392" speed="13.89" to="node_03x01" type="highway.undefined" />
    <edge disallow="tram rail_urban rail rail_electric ship" dump_speed="10.03" from="node_03x02" id="xedge_03x04" len="100.0" numLanes="1" priority="5" slowdown="3.86" slowdown_ratio="0.277897768179" speed="13.89" to="node_03x03" type="highway.undefined" />
    <edge disallow="tram rail_urban rail rail_electric ship" dump_speed="10.7" from="node_03x03" id="xedge_03x05" len="100.0" numLanes="1" priority="5" slowdown="3.19" slowdown_ratio="0.22966162707" speed="13.89" to="node_03x02" type="highway.undefined" />
    <edge disallow="tram rail_urban rail rail_electric ship" dump_speed="9.66" from="node_03x04" id="xedge_03x08" len="100.0" numLanes="1" priority="5" slowdown="4.23" slowdown_ratio="0.304535637149" speed="13.89" to="node_03x05" type="highway.undefined" />