<?xml version="1.0" encoding="UTF-8"?>

<!-- generated on 11/30/16 16:59:31 by SUMO netconvert Version 0.27.1
<?xml version="1.0" encoding="UTF-8"?>

<configuration xmlns:xsi="http://www.w3.org/2001/XMLSchema-instance" xsi:noNamespaceSchemaLocation="http://sumo.dlr.de/xsd/netconvertConfiguration.xsd">

    <input>
        <node-files value="C:\Users\zs633\Capstone\4_gravity_new\test_3\7_displaced\gravity.nod.xml"/>
        <edge-files value="C:\Users\zs633\Capstone\4_gravity_new\test_3\7_displaced\gravity.edg.xml"/>
        <connection-files value="C:\Users\zs633\Capstone\4_gravity_new\test_3\4_plain\test.con.xml"/>
        <tllogic-files value="C:\Users\zs633\Capstone\4_gravity_new\test_3\4_plain\test.tll.xml"/>
    </input>

    <output>
        <output-file value="C:\Users\zs633\Capstone\4_gravity_new\test_3\9_output_net\gravity.net.xml"/>
    </output>

    <processing>
        <ignore-errors value="true"/>
        <ignore-errors.edge-type value="true"/>
    </processing>

    <report>
        <verbose value="true"/>
        <xml-validation value="never"/>
        <no-warnings value="true"/>
    </report>

</configuration>
-->

<net version="0.27" xmlns:xsi="http://www.w3.org/2001/XMLSchema-instance" xsi:noNamespaceSchemaLocation="http://sumo.dlr.de/xsd/net_file.xsd">

    <location netOffset="9730.40,9730.40" convBoundary="0.00,0.00,21460.79,21460.79" origBoundary="-9730.40,-9730.40,11730.40,11730.40" projParameter="!"/>

    <edge id=":node_00x00_0" function="internal">
        <lane id=":node_00x00_0_0" index="0" disallow="tram rail_urban rail rail_electric ship" speed="13.89" length="1.57" shape="9577.43,9576.37 9577.06,9576.53 9576.76,9576.76 9576.53,9577.06 9576.37,9577.43"/>
    </edge>
    <edge id=":node_00x00_1" function="internal">
        <lane id=":node_00x00_1_0" index="0" disallow="tram rail_urban rail rail_electric ship" speed="13.89" length="4.81" shape="9573.21,9576.47 9573.70,9575.33 9574.41,9574.41 9575.33,9573.70 9576.47,9573.21"/>
    </edge>
    <edge id=":node_00x01_0" function="internal">
        <lane id=":node_00x01_0_0" index="0" disallow="tram rail_urban rail rail_electric ship" speed="13.89" length="9.25" shape="9555.59,9665.60 9552.50,9666.93 9550.19,9668.18 9548.66,9669.36 9547.91,9670.45"/>
    </edge>
    <edge id=":node_00x01_1" function="internal">
        <lane id=":node_00x01_1_0" index="0" disallow="tram rail_urban rail rail_electric ship" speed="13.89" length="15.06" shape="9555.59,9665.60 9551.06,9666.77 9548.31,9666.02 9547.34,9663.34 9548.15,9658.73"/>
    </edge>
    <edge id=":node_00x01_2" function="internal">
        <lane id=":node_00x01_2_0" index="0" disallow="tram rail_urban rail rail_electric ship" speed="13.89" length="6.22" shape="9551.31,9659.69 9550.97,9661.59 9551.37,9662.70 9552.51,9663.01 9554.38,9662.53"/>
    </edge>
    <edge id=":node_00x01_3" function="internal">
        <lane id=":node_00x01_3_0" index="0" disallow="tram rail_urban rail rail_electric ship" speed="13.89" length="11.29" shape="9551.31,9659.69 9547.91,9670.45"/>
    </edge>
    <edge id=":node_00x01_4" function="internal">
        <lane id=":node_00x01_4_0" index="0" disallow="tram rail_urban rail rail_electric ship" speed="13.89" length="11.16" shape="9544.79,9669.37 9548.15,9658.73"/>
    </edge>
    <edge id=":node_00x01_5" function="internal">
        <lane id=":node_00x01_5_0" index="0" disallow="tram rail_urban rail rail_electric ship" speed="13.89" length="4.42" shape="9544.79,9669.37 9545.85,9667.61 9547.62,9666.05"/>
    </edge>
    <edge id=":node_00x01_6" function="internal">
        <lane id=":node_00x01_6_0" index="0" speed="13.89" length="7.64" shape="9547.62,9666.05 9547.80,9665.89 9550.65,9664.19 9554.38,9662.53"/>
    </edge>
    <edge id=":node_00x02_0" function="internal">
        <lane id=":node_00x02_0_0" index="0" disallow="tram rail_urban rail rail_electric ship" speed="13.89" length="6.20" shape="9523.91,9758.56 9517.76,9757.77"/>
    </edge>
    <edge id=":node_00x02_1" function="internal">
        <lane id=":node_00x02_1_0" index="0" disallow="tram rail_urban rail rail_electric ship" speed="13.89" length="16.93" shape="9523.91,9758.56 9518.83,9760.54 9515.85,9760.09 9514.97,9757.20 9516.18,9751.89"/>
    </edge>
    <edge id=":node_00x02_2" function="internal">
        <lane id=":node_00x02_2_0" index="0" disallow="tram rail_urban rail rail_electric ship" speed="13.89" length="6.77" shape="9519.30,9752.97 9518.81,9755.09 9519.17,9756.25 9520.36,9756.43 9522.39,9755.64"/>
    </edge>
    <edge id=":node_00x02_3" function="internal">
        <lane id=":node_00x02_3_0" index="0" disallow="tram rail_urban rail rail_electric ship" speed="13.89" length="5.04" shape="9519.30,9752.97 9517.76,9757.77"/>
    </edge>
    <edge id=":node_00x02_4" function="internal">
        <lane id=":node_00x02_4_0" index="0" disallow="tram rail_urban rail rail_electric ship" speed="13.89" length="4.96" shape="9514.67,9756.61 9516.18,9751.89"/>
    </edge>
    <edge id=":node_00x02_5" function="internal">
        <lane id=":node_00x02_5_0" index="0" disallow="tram rail_urban rail rail_electric ship" speed="13.89" length="8.49" shape="9514.67,9756.61 9515.97,9755.18 9517.75,9755.43 9519.92,9756.04 9522.39,9755.64"/>
    </edge>
    <edge id=":node_00x03_0" function="internal">
        <lane id=":node_00x03_0_0" index="0" disallow="tram rail_urban rail rail_electric ship" speed="13.89" length="6.78" shape="9488.21,9854.99 9481.45,9854.59"/>
    </edge>
    <edge id=":node_00x03_1" function="internal">
        <lane id=":node_00x03_1_0" index="0" disallow="tram rail_urban rail rail_electric ship" speed="13.89" length="20.16" shape="9488.21,9854.99 9482.36,9858.39 9479.05,9858.48 9478.30,9855.26 9480.09,9848.73"/>
    </edge>
    <edge id=":node_00x03_2" function="internal">
        <lane id=":node_00x03_2_0" index="0" disallow="tram rail_urban rail rail_electric ship" speed="13.89" length="7.75" shape="9483.18,9849.89 9482.49,9852.40 9482.78,9853.64 9484.05,9853.60 9486.30,9852.30"/>
    </edge>
    <edge id=":node_00x03_3" function="internal">
        <lane id=":node_00x03_3_0" index="0" disallow="tram rail_urban rail rail_electric ship" speed="13.89" length="5.01" shape="9483.18,9849.89 9481.45,9854.59"/>
    </edge>
    <edge id=":node_00x03_4" function="internal">
        <lane id=":node_00x03_4_0" index="0" disallow="tram rail_urban rail rail_electric ship" speed="13.89" length="4.99" shape="9478.36,9853.42 9480.09,9848.73"/>
    </edge>
    <edge id=":node_00x03_5" function="internal">
        <lane id=":node_00x03_5_0" index="0" disallow="tram rail_urban rail rail_electric ship" speed="13.89" length="8.74" shape="9478.36,9853.42 9479.74,9851.99 9481.64,9852.32 9483.88,9852.92 9486.30,9852.30"/>
    </edge>
    <edge id=":node_00x04_0" function="internal">
        <lane id=":node_00x04_0_0" index="0" disallow="tram rail_urban rail rail_electric ship" speed="13.89" length="7.55" shape="9450.32,9955.59 9442.77,9955.78"/>
    </edge>
    <edge id=":node_00x04_1" function="internal">
        <lane id=":node_00x04_1_0" index="0" disallow="tram rail_urban rail rail_electric ship" speed="13.89" length="26.76" shape="9450.32,9955.59 9443.27,9961.85 9439.49,9963.02 9438.98,9959.10 9441.73,9950.08"/>
    </edge>
    <edge id=":node_00x04_2" function="internal">
        <lane id=":node_00x04_2_0" index="0" disallow="tram rail_urban rail rail_electric ship" speed="13.89" length="9.83" shape="9444.81,9951.25 9443.80,9954.56 9443.99,9956.01 9445.38,9955.58 9447.97,9953.28"/>
    </edge>
    <edge id=":node_00x04_3" function="internal">
        <lane id=":node_00x04_3_0" index="0" disallow="tram rail_urban rail rail_electric ship" speed="13.89" length="4.97" shape="9444.81,9951.25 9442.77,9955.78"/>
    </edge>
    <edge id=":node_00x04_4" function="internal">
        <lane id=":node_00x04_4_0" index="0" disallow="tram rail_urban rail rail_electric ship" speed="13.89" length="5.05" shape="9439.66,9954.69 9441.73,9950.08"/>
    </edge>
    <edge id=":node_00x04_5" function="internal">
        <lane id=":node_00x04_5_0" index="0" disallow="tram rail_urban rail rail_electric ship" speed="13.89" length="9.21" shape="9439.66,9954.69 9441.13,9953.22 9443.22,9953.62 9445.62,9954.21 9447.97,9953.28"/>
    </edge>
    <edge id=":node_00x05_0" function="internal">
        <lane id=":node_00x05_0_0" index="0" disallow="tram rail_urban rail rail_electric ship" speed="13.89" length="8.81" shape="9414.69,10056.17 9405.91,10056.93"/>
    </edge>
    <edge id=":node_00x05_1" function="internal">
        <lane id=":node_00x05_1_0" index="0" disallow="tram rail_urban rail rail_electric ship" speed="13.89" length="46.03" shape="9414.69,10056.17 9405.19,10070.09 9400.54,10073.97 9400.71,10067.82 9405.72,10051.62"/>
    </edge>
    <edge id=":node_00x05_2" function="internal">
        <lane id=":node_00x05_2_0" index="0" disallow="tram rail_urban rail rail_electric ship" speed="13.89" length="13.46" shape="9408.83,10052.71 9406.67,10059.02 9405.38,10063.13 9404.95,10065.05 9405.38,10064.77"/>
    </edge>
    <edge id=":node_00x05_3" function="internal">
        <lane id=":node_00x05_3_0" index="0" disallow="tram rail_urban rail rail_electric ship" speed="13.89" length="5.20" shape="9408.83,10052.71 9408.12,10054.05 9407.33,10054.81 9406.55,10055.58 9405.91,10056.93"/>
    </edge>
    <edge id=":node_00x05_4" function="internal">
        <lane id=":node_00x05_4_0" index="0" disallow="tram rail_urban rail rail_electric ship" speed="13.89" length="5.37" shape="9402.75,10056.01 9403.40,10054.60 9404.18,10053.80 9404.99,10053.01 9405.72,10051.62"/>
    </edge>
    <edge id=":node_00x05_5" function="internal">
        <lane id=":node_00x05_5_0" index="0" disallow="tram rail_urban rail rail_electric ship" speed="13.89" length="9.14" shape="9402.75,10056.01 9405.38,10064.77"/>
    </edge>
    <edge id=":node_00x06_0" function="internal">
        <lane id=":node_00x06_0_0" index="0" disallow="tram rail_urban rail rail_electric ship" speed="13.89" length="2.29" shape="9363.43,10203.13 9362.84,10205.34"/>
    </edge>
    <edge id=":node_00x06_1" function="internal">
        <lane id=":node_00x06_1_0" index="0" disallow="tram rail_urban rail rail_electric ship" speed="13.89" length="3.34" shape="9363.43,10203.13 9360.25,10202.10"/>
    </edge>
    <edge id=":node_00x06_2" function="internal">
        <lane id=":node_00x06_2_0" index="0" disallow="tram rail_urban rail rail_electric ship" speed="13.89" length="2.64" shape="9359.61,10204.65 9360.25,10202.10"/>
    </edge>
    <edge id=":node_00x06_3" function="internal">
        <lane id=":node_00x06_3_0" index="0" disallow="tram rail_urban rail rail_electric ship" speed="13.89" length="2.63" shape="9359.61,10204.65 9360.29,10202.11"/>
    </edge>
    <edge id=":node_00x06_4" function="internal">
        <lane id=":node_00x06_4_0" index="0" disallow="tram rail_urban rail rail_electric ship" speed="13.89" length="2.29" shape="9363.39,10203.11 9362.84,10205.34"/>
    </edge>
    <edge id=":node_00x06_5" function="internal">
        <lane id=":node_00x06_5_0" index="0" disallow="tram rail_urban rail rail_electric ship" speed="13.89" length="3.26" shape="9363.39,10203.11 9360.29,10202.11"/>
    </edge>
    <edge id=":node_00x07_0" function="internal">
        <lane id=":node_00x07_0_0" index="0" disallow="tram rail_urban rail rail_electric ship" speed="13.89" length="2.62" shape="9335.71,10332.46 9335.27,10335.04"/>
    </edge>
    <edge id=":node_00x07_1" function="internal">
        <lane id=":node_00x07_1_0" index="0" disallow="tram rail_urban rail rail_electric ship" speed="13.89" length="24.96" shape="9335.71,10332.46 9333.55,10341.55 9332.26,10344.53 9331.82,10341.42 9332.25,10332.21"/>
    </edge>
    <edge id=":node_00x07_2" function="internal">
        <lane id=":node_00x07_2_0" index="0" disallow="tram rail_urban rail rail_electric ship" speed="13.89" length="2.61" shape="9335.54,10332.44 9335.27,10335.04"/>
    </edge>
    <edge id=":node_00x07_3" function="internal">
        <lane id=":node_00x07_3_0" index="0" disallow="tram rail_urban rail rail_electric ship" speed="13.89" length="3.16" shape="9335.54,10332.44 9332.39,10332.22"/>
    </edge>
    <edge id=":node_00x07_4" function="internal">
        <lane id=":node_00x07_4_0" index="0" disallow="tram rail_urban rail rail_electric ship" speed="13.89" length="2.41" shape="9331.99,10334.60 9332.25,10332.21"/>
    </edge>
    <edge id=":node_00x07_5" function="internal">
        <lane id=":node_00x07_5_0" index="0" disallow="tram rail_urban rail rail_electric ship" speed="13.89" length="2.42" shape="9331.99,10334.60 9332.39,10332.22"/>
    </edge>
    <edge id=":node_00x08_0" function="internal">
        <lane id=":node_00x08_0_0" index="0" disallow="tram rail_urban rail rail_electric ship" speed="13.89" length="2.69" shape="9317.83,10464.79 9317.55,10467.46"/>
    </edge>
    <edge id=":node_00x08_1" function="internal">
        <lane id=":node_00x08_1_0" index="0" disallow="tram rail_urban rail rail_electric ship" speed="13.89" length="17.11" shape="9317.83,10464.79 9316.76,10471.08 9315.81,10473.23 9314.96,10471.22 9314.23,10465.07"/>
    </edge>
    <edge id=":node_00x08_2" function="internal">
        <lane id=":node_00x08_2_0" index="0" disallow="tram rail_urban rail rail_electric ship" speed="13.89" length="2.65" shape="9317.52,10464.81 9317.55,10467.46"/>
    </edge>
    <edge id=":node_00x08_3" function="internal">
        <lane id=":node_00x08_3_0" index="0" disallow="tram rail_urban rail rail_electric ship" speed="13.89" length="3.06" shape="9317.52,10464.81 9314.47,10465.05"/>
    </edge>
    <edge id=":node_00x08_4" function="internal">
        <lane id=":node_00x08_4_0" index="0" disallow="tram rail_urban rail rail_electric ship" speed="13.89" length="2.17" shape="9314.25,10467.23 9314.23,10465.07"/>
    </edge>
    <edge id=":node_00x08_5" function="internal">
        <lane id=":node_00x08_5_0" index="0" disallow="tram rail_urban rail rail_electric ship" speed="13.89" length="2.19" shape="9314.25,10467.23 9314.47,10465.05"/>
    </edge>
    <edge id=":node_00x09_0" function="internal">
        <lane id=":node_00x09_0_0" index="0" disallow="tram rail_urban rail rail_electric ship" speed="13.89" length="1.63" shape="9308.67,10598.26 9308.54,10599.88"/>
    </edge>
    <edge id=":node_00x09_1" function="internal">
        <lane id=":node_00x09_1_0" index="0" disallow="tram rail_urban rail rail_electric ship" speed="13.89" length="38.18" shape="9308.67,10598.26 9306.24,10612.23 9304.87,10616.76 9304.58,10611.86 9305.34,10597.53"/>
    </edge>
    <edge id=":node_00x09_2" function="internal">
        <lane id=":node_00x09_2_0" index="0" disallow="tram rail_urban rail rail_electric ship" speed="13.89" length="2.29" shape="9305.24,10599.81 9305.34,10597.53"/>
    </edge>
    <edge id=":node_00x09_3" function="internal">
        <lane id=":node_00x09_3_0" index="0" disallow="tram rail_urban rail rail_electric ship" speed="13.89" length="1.26" shape="9305.24,10599.81 9305.28,10598.56"/>
    </edge>
    <edge id=":node_00x09_4" function="internal">
        <lane id=":node_00x09_4_0" index="0" disallow="tram rail_urban rail rail_electric ship" speed="13.89" length="1.83" shape="9308.62,10598.04 9308.54,10599.88"/>
    </edge>
    <edge id=":node_00x09_5" function="internal">
        <lane id=":node_00x09_5_0" index="0" disallow="tram rail_urban rail rail_electric ship" speed="13.89" length="3.38" shape="9308.62,10598.04 9305.28,10598.56"/>
    </edge>
    <edge id=":node_00x10_0" function="internal">
        <lane id=":node_00x10_0_0" index="0" disallow="tram rail_urban rail rail_electric ship" speed="13.89" length="2.94" shape="9302.65,10731.86 9302.65,10728.93"/>
    </edge>
    <edge id=":node_00x10_1" function="internal">
        <lane id=":node_00x10_1_0" index="0" disallow="tram rail_urban rail rail_electric ship" speed="13.89" length="3.41" shape="9302.65,10731.86 9302.60,10730.95 9302.57,10729.93 9302.74,10729.09 9303.26,10728.75"/>
    </edge>
    <edge id=":node_00x10_2" function="internal">
        <lane id=":node_00x10_2_0" index="0" disallow="tram rail_urban rail rail_electric ship" speed="13.89" length="1.44" shape="9305.57,10732.05 9305.98,10733.42"/>
    </edge>
    <edge id=":node_00x10_3" function="internal">
        <lane id=":node_00x10_3_0" index="0" disallow="tram rail_urban rail rail_electric ship" speed="13.89" length="4.89" shape="9305.57,10732.05 9304.27,10731.85 9303.35,10731.27 9302.81,10730.29 9302.65,10728.93"/>
    </edge>
    <edge id=":node_00x10_4" function="internal">
        <lane id=":node_00x10_4_0" index="0" disallow="tram rail_urban rail rail_electric ship" speed="13.89" length="3.06" shape="9305.98,10727.37 9303.26,10728.75"/>
    </edge>
    <edge id=":node_00x10_5" function="internal">
        <lane id=":node_00x10_5_0" index="0" disallow="tram rail_urban rail rail_electric ship" speed="13.89" length="6.05" shape="9305.98,10727.37 9305.98,10733.42"/>
    </edge>
    <edge id=":node_00x11_0" function="internal">
        <lane id=":node_00x11_0_0" index="0" disallow="tram rail_urban rail rail_electric ship" speed="13.89" length="2.71" shape="9305.36,10863.48 9305.24,10860.77"/>
    </edge>
    <edge id=":node_00x11_1" function="internal">
        <lane id=":node_00x11_1_0" index="0" disallow="tram rail_urban rail rail_electric ship" speed="13.89" length="37.65" shape="9305.36,10863.48 9304.57,10848.97 9304.83,10843.77 9306.13,10847.87 9308.47,10861.27"/>
    </edge>
    <edge id=":node_00x11_2" function="internal">
        <lane id=":node_00x11_2_0" index="0" disallow="tram rail_urban rail rail_electric ship" speed="13.89" length="0.19" shape="9305.05,10860.78 9305.24,10860.77"/>
    </edge>
    <edge id=":node_00x11_3" function="internal">
        <lane id=":node_00x11_3_0" index="0" disallow="tram rail_urban rail rail_electric ship" speed="13.89" length="4.20" shape="9305.05,10860.78 9308.63,10862.97"/>
    </edge>
    <edge id=":node_00x11_4" function="internal">
        <lane id=":node_00x11_4_0" index="0" disallow="tram rail_urban rail rail_electric ship" speed="13.89" length="2.26" shape="9308.53,10860.71 9308.63,10862.97"/>
    </edge>
    <edge id=":node_00x11_5" function="internal">
        <lane id=":node_00x11_5_0" index="0" disallow="tram rail_urban rail rail_electric ship" speed="13.89" length="0.57" shape="9308.53,10860.71 9308.52,10860.88 9308.49,10860.99 9308.46,10861.11 9308.47,10861.27"/>
    </edge>
    <edge id=":node_00x12_0" function="internal">
        <lane id=":node_00x12_0_0" index="0" disallow="tram rail_urban rail rail_electric ship" speed="13.89" length="3.46" shape="9314.56,10996.41 9314.21,10992.98"/>
    </edge>
    <edge id=":node_00x12_1" function="internal">
        <lane id=":node_00x12_1_0" index="0" disallow="tram rail_urban rail rail_electric ship" speed="13.89" length="2.92" shape="9314.56,10996.41 9317.48,10996.48"/>
    </edge>
    <edge id=":node_00x12_2" function="internal">
        <lane id=":node_00x12_2_0" index="0" disallow="tram rail_urban rail rail_electric ship" speed="13.89" length="3.78" shape="9317.51,10992.75 9317.90,10996.51"/>
    </edge>
    <edge id=":node_00x12_3" function="internal">
        <lane id=":node_00x12_3_0" index="0" disallow="tram rail_urban rail rail_electric ship" speed="13.89" length="3.73" shape="9317.51,10992.75 9317.48,10996.48"/>
    </edge>
    <edge id=":node_00x12_4" function="internal">
        <lane id=":node_00x12_4_0" index="0" disallow="tram rail_urban rail rail_electric ship" speed="13.89" length="3.49" shape="9314.17,10996.47 9314.21,10992.98"/>
    </edge>
    <edge id=":node_00x12_5" function="internal">
        <lane id=":node_00x12_5_0" index="0" disallow="tram rail_urban rail rail_electric ship" speed="13.89" length="17.75" shape="9314.17,10996.47 9314.93,10990.02 9315.81,10987.88 9316.80,10990.04 9317.90,10996.51"/>
    </edge>
    <edge id=":node_00x13_0" function="internal">
        <lane id=":node_00x13_0_0" index="0" disallow="tram rail_urban rail rail_electric ship" speed="13.89" length="2.69" shape="9332.26,11128.84 9331.99,11126.17"/>
    </edge>
    <edge id=":node_00x13_1" function="internal">
        <lane id=":node_00x13_1_0" index="0" disallow="tram rail_urban rail rail_electric ship" speed="13.89" length="25.23" shape="9332.26,11128.84 9331.83,11119.53 9332.28,11116.39 9333.59,11119.41 9335.77,11128.60"/>
    </edge>
    <edge id=":node_00x13_2" function="internal">
        <lane id=":node_00x13_2_0" index="0" disallow="tram rail_urban rail rail_electric ship" speed="13.89" length="2.70" shape="9332.45,11128.83 9331.99,11126.17"/>
    </edge>
    <edge id=":node_00x13_3" function="internal">
        <lane id=":node_00x13_3_0" index="0" disallow="tram rail_urban rail rail_electric ship" speed="13.89" length="3.12" shape="9332.45,11128.83 9335.56,11128.61"/>
    </edge>
    <edge id=":node_00x13_4" function="internal">
        <lane id=":node_00x13_4_0" index="0" disallow="tram rail_urban rail rail_electric ship" speed="13.89" length="2.91" shape="9335.26,11125.73 9335.77,11128.60"/>
    </edge>
    <edge id=":node_00x13_5" function="internal">
        <lane id=":node_00x13_5_0" index="0" disallow="tram rail_urban rail rail_electric ship" speed="13.89" length="2.90" shape="9335.26,11125.73 9335.56,11128.61"/>
    </edge>
    <edge id=":node_00x14_0" function="internal">
        <lane id=":node_00x14_0_0" index="0" disallow="tram rail_urban rail rail_electric ship" speed="13.89" length="2.75" shape="9360.27,11258.74 9359.59,11256.07"/>
    </edge>
    <edge id=":node_00x14_1" function="internal">
        <lane id=":node_00x14_1_0" index="0" disallow="tram rail_urban rail rail_electric ship" speed="13.89" length="3.34" shape="9360.27,11258.74 9363.44,11257.71"/>
    </edge>
    <edge id=":node_00x14_2" function="internal">
        <lane id=":node_00x14_2_0" index="0" disallow="tram rail_urban rail rail_electric ship" speed="13.89" length="2.75" shape="9360.30,11258.73 9359.59,11256.07"/>
    </edge>
    <edge id=":node_00x14_3" function="internal">
        <lane id=":node_00x14_3_0" index="0" disallow="tram rail_urban rail rail_electric ship" speed="13.89" length="3.26" shape="9360.30,11258.73 9363.41,11257.72"/>
    </edge>
    <edge id=":node_00x14_4" function="internal">
        <lane id=":node_00x14_4_0" index="0" disallow="tram rail_urban rail rail_electric ship" speed="13.89" length="2.41" shape="9362.82,11255.39 9363.44,11257.71"/>
    </edge>
    <edge id=":node_00x14_5" function="internal">
        <lane id=":node_00x14_5_0" index="0" disallow="tram rail_urban rail rail_electric ship" speed="13.89" length="2.41" shape="9362.82,11255.39 9363.41,11257.72"/>
    </edge>
    <edge id=":node_00x15_0" function="internal">
        <lane id=":node_00x15_0_0" index="0" disallow="tram rail_urban rail rail_electric ship" speed="13.89" length="5.37" shape="9405.72,11409.17 9404.99,11407.78 9404.18,11406.99 9403.40,11406.19 9402.75,11404.78"/>
    </edge>
    <edge id=":node_00x15_1" function="internal">
        <lane id=":node_00x15_1_0" index="0" disallow="tram rail_urban rail rail_electric ship" speed="13.89" length="40.12" shape="9405.72,11409.17 9400.30,11392.33 9398.91,11384.23 9401.53,11384.88 9408.18,11394.27"/>
    </edge>
    <edge id=":node_00x15_2" function="internal">
        <lane id=":node_00x15_2_0" index="0" disallow="tram rail_urban rail rail_electric ship" speed="13.89" length="16.00" shape="9411.90,11406.38 9408.61,11401.57 9407.01,11400.25 9407.08,11402.42 9408.83,11408.08"/>
    </edge>
    <edge id=":node_00x15_3" function="internal">
        <lane id=":node_00x15_3_0" index="0" disallow="tram rail_urban rail rail_electric ship" speed="13.89" length="9.29" shape="9411.90,11406.38 9402.75,11404.78"/>
    </edge>
    <edge id=":node_00x15_4" function="internal">
        <lane id=":node_00x15_4_0" index="0" disallow="tram rail_urban rail rail_electric ship" speed="13.89" length="9.85" shape="9405.91,11403.86 9408.18,11394.27"/>
    </edge>
    <edge id=":node_00x15_5" function="internal">
        <lane id=":node_00x15_5_0" index="0" disallow="tram rail_urban rail rail_electric ship" speed="13.89" length="5.20" shape="9405.91,11403.86 9406.55,11405.22 9407.33,11405.98 9408.12,11406.74 9408.83,11408.08"/>
    </edge>
    <edge id=":node_00x16_0" function="internal">
        <lane id=":node_00x16_0_0" index="0" disallow="tram rail_urban rail rail_electric ship" speed="13.89" length="5.05" shape="9441.73,11510.71 9439.66,11506.10"/>
    </edge>
    <edge id=":node_00x16_1" function="internal">
        <lane id=":node_00x16_1_0" index="0" disallow="tram rail_urban rail rail_electric ship" speed="13.89" length="23.40" shape="9441.73,11510.71 9438.98,11501.69 9439.49,11497.77 9443.27,11498.94 9447.81,11502.97"/>
    </edge>
    <edge id=":node_00x16_6" function="internal">
        <lane id=":node_00x16_6_0" index="0" speed="13.89" length="3.36" shape="9447.81,11502.97 9450.32,11505.20"/>
    </edge>
    <edge id=":node_00x16_2" function="internal">
        <lane id=":node_00x16_2_0" index="0" disallow="tram rail_urban rail rail_electric ship" speed="13.89" length="9.83" shape="9447.97,11507.51 9445.38,11505.21 9443.99,11504.79 9443.80,11506.23 9444.81,11509.54"/>
    </edge>
    <edge id=":node_00x16_3" function="internal">
        <lane id=":node_00x16_3_0" index="0" disallow="tram rail_urban rail rail_electric ship" speed="13.89" length="8.43" shape="9447.97,11507.51 9439.66,11506.10"/>
    </edge>
    <edge id=":node_00x16_4" function="internal">
        <lane id=":node_00x16_4_0" index="0" disallow="tram rail_urban rail rail_electric ship" speed="13.89" length="8.39" shape="9442.77,11505.01 9444.10,11506.16 9446.02,11505.43 9448.20,11504.53 9450.32,11505.20"/>
    </edge>
    <edge id=":node_00x16_5" function="internal">
        <lane id=":node_00x16_5_0" index="0" disallow="tram rail_urban rail rail_electric ship" speed="13.89" length="4.97" shape="9442.77,11505.01 9444.81,11509.54"/>
    </edge>
    <edge id=":node_00x17_0" function="internal">
        <lane id=":node_00x17_0_0" index="0" disallow="tram rail_urban rail rail_electric ship" speed="13.89" length="4.99" shape="9480.09,11612.06 9478.36,11607.37"/>
    </edge>
    <edge id=":node_00x17_1" function="internal">
        <lane id=":node_00x17_1_0" index="0" disallow="tram rail_urban rail rail_electric ship" speed="13.89" length="16.81" shape="9480.09,11612.06 9478.30,11605.53 9479.05,11602.31 9482.36,11602.40 9485.31,11604.12"/>
    </edge>
    <edge id=":node_00x17_6" function="internal">
        <lane id=":node_00x17_6_0" index="0" speed="13.89" length="3.35" shape="9485.31,11604.12 9488.21,11605.80"/>
    </edge>
    <edge id=":node_00x17_2" function="internal">
        <lane id=":node_00x17_2_0" index="0" disallow="tram rail_urban rail rail_electric ship" speed="13.89" length="7.75" shape="9486.30,11608.49 9484.05,11607.19 9482.78,11607.15 9482.49,11608.39 9483.18,11610.90"/>
    </edge>
    <edge id=":node_00x17_3" function="internal">
        <lane id=":node_00x17_3_0" index="0" disallow="tram rail_urban rail rail_electric ship" speed="13.89" length="8.02" shape="9486.30,11608.49 9478.36,11607.37"/>
    </edge>
    <edge id=":node_00x17_4" function="internal">
        <lane id=":node_00x17_4_0" index="0" disallow="tram rail_urban rail rail_electric ship" speed="13.89" length="7.55" shape="9481.45,11606.20 9482.62,11607.20 9484.24,11606.46 9486.16,11605.48 9488.21,11605.80"/>
    </edge>
    <edge id=":node_00x17_5" function="internal">
        <lane id=":node_00x17_5_0" index="0" disallow="tram rail_urban rail rail_electric ship" speed="13.89" length="5.01" shape="9481.45,11606.20 9483.18,11610.90"/>
    </edge>
    <edge id=":node_00x18_0" function="internal">
        <lane id=":node_00x18_0_0" index="0" disallow="tram rail_urban rail rail_electric ship" speed="13.89" length="4.96" shape="9516.18,11708.90 9514.67,11704.18"/>
    </edge>
    <edge id=":node_00x18_1" function="internal">
        <lane id=":node_00x18_1_0" index="0" disallow="tram rail_urban rail rail_electric ship" speed="13.89" length="13.54" shape="9516.18,11708.90 9514.97,11703.59 9515.85,11700.70 9518.83,11700.25 9520.75,11701.00"/>
    </edge>
    <edge id=":node_00x18_6" function="internal">
        <lane id=":node_00x18_6_0" index="0" speed="13.89" length="3.39" shape="9520.75,11701.00 9523.91,11702.23"/>
    </edge>
    <edge id=":node_00x18_2" function="internal">
        <lane id=":node_00x18_2_0" index="0" disallow="tram rail_urban rail rail_electric ship" speed="13.89" length="6.77" shape="9522.39,11705.15 9520.36,11704.36 9519.17,11704.55 9518.81,11705.70 9519.30,11707.82"/>
    </edge>
    <edge id=":node_00x18_3" function="internal">
        <lane id=":node_00x18_3_0" index="0" disallow="tram rail_urban rail rail_electric ship" speed="13.89" length="7.78" shape="9522.39,11705.15 9514.67,11704.18"/>
    </edge>
    <edge id=":node_00x18_4" function="internal">
        <lane id=":node_00x18_4_0" index="0" disallow="tram rail_urban rail rail_electric ship" speed="13.89" length="6.95" shape="9517.76,11703.02 9518.79,11703.92 9520.21,11703.17 9521.94,11702.15 9523.91,11702.23"/>
    </edge>
    <edge id=":node_00x18_5" function="internal">
        <lane id=":node_00x18_5_0" index="0" disallow="tram rail_urban rail rail_electric ship" speed="13.89" length="5.04" shape="9517.76,11703.02 9519.30,11707.82"/>
    </edge>
    <edge id=":node_00x19_0" function="internal">