<?xml version="1.0" encoding="UTF-8"?>

<!-- generated on 02/15/17 23:10:29 by SUMO netconvert Version 0.27.1
<?xml version="1.0" encoding="UTF-8"?>

<configuration xmlns:xsi="http://www.w3.org/2001/XMLSchema-instance" xsi:noNamespaceSchemaLocation="http://sumo.dlr.de/xsd/netconvertConfiguration.xsd">

    <input>
        <sumo-net-file value="C:\Users\zs633\capstone\10_spherical\test_random4\0_map\test.net.xml"/>
    </input>

    <output>
        <plain-output-prefix value="test"/>
    </output>

    <processing>
        <no-turnarounds value="true"/>
        <offset.disable-normalization value="true"/>
        <lefthand value="false"/>
        <junctions.corner-detail value="0"/>
    </processing>

</configuration>
-->

<edges version="0.27" xmlns:xsi="http://www.w3.org/2001/XMLSchema-instance" xsi:noNamespaceSchemaLocation="http://sumo.dlr.de/xsd/edges_file.xsd">
    <edge id="xedge_00x00" from="node_00x00" to="node_00x01" priority="5" type="highway.undefined" numLanes="1" speed="13.89" disallow="tram rail_urban rail rail_electric ship"/>
    <edge id="xedge_00x01" from="node_00x01" to="node_00x00" priority="5" type="highway.undefined" numLanes="1" speed="13.89" disallow="tram rail_urban rail rail_electric ship"/>
    <edge id="xedge_00x02" from="node_00x01" to="node_00x02" priority="5" type="highway.undefined" numLanes="1" speed="13.89" disallow="tram rail_urban rail rail_electric ship"/>
    <edge id="xedge_00x03" from="node_00x02" to="node_00x01" priority="5" type="highway.undefined" numLanes="1" speed="13.89" disallow="tram rail_urban rail rail_electric ship"/>
    <edge id="xedge_00x04" from="node_00x02" to="node_00x03" priority="5" type="highway.undefined" numLanes="1" speed="13.89" disallow="tram rail_urban rail rail_electric ship"/>
    <edge id="xedge_00x05" from="node_00x03" to="node_00x02" priority="5" type="highway.undefined" numLanes="1" speed="13.89" disallow="tram rail_urban rail rail_electric ship"/>
    <edge id="xedge_00x06" from="node_00x03" to="node_00x04" priority="5" type="highway.undefined" numLanes="1" speed="13.89" disallow="tram rail_urban rail rail_electric ship"/>
    <edge id="xedge_00x07" from="node_00x04" to="node_00x03" priority="5" type="highway.undefined" numLanes="1" speed="13.89" disallow="tram rail_urban rail rail_electric ship"/>
    <edge id="xedge_00x10" from="node_00x05" to="node_00x06" priority="5" type="highway.undefined" numLanes="1" speed="13.89" disallow="tram rail_urban rail rail_electric ship"/>
    <edge id="xedge_00x11" from="node_00x06" to="node_00x05" priority="5" type="highway.undefined" numLanes="1" speed="13.89" disallow="tram rail_urban rail rail_electric ship"/>
    <edge id="xedge_00x12" from="node_00x06" to="node_00x07" priority="5" type="highway.undefined" numLanes="1" speed="13.89" disallow="tram rail_urban rail rail_electric ship"/>
    <edge id="xedge_00x13" from="node_00x07" to="node_00x06" priority="5" type="highway.undefined" numLanes="1" speed="13.89" disallow="tram rail_urban rail rail_electric ship"/>
    <edge id="xedge_00x14" from="node_00x07" to="node_00x08" priority="5" type="highway.undefined" numLanes="1" speed="13.89" disallow="tram rail_urban rail rail_electric ship"/>
    <edge id="xedge_00x15" from="node_00x08" to="node_00x07" priority="5" type="highway.undefined" numLanes="1" speed="13.89" disallow="tram rail_urban rail rail_electric ship"/>
    <edge id="xedge_00x18" from="node_00x09" to="node_00x10" priority="5" type="highway.undefined" numLanes="1" speed="13.89" disallow="tram rail_urban rail rail_electric ship"/>
    <edge id="xedge_00x19" from="node_00x10" to="node_00x09" priority="5" type="highway.undefined" numLanes="1" speed="13.89" disallow="tram rail_urban rail rail_electric ship"/>
    <edge id="xedge_00x20" from="node_00x10" to="node_00x11" priority="5" type="highway.undefined" numLanes="1" speed="13.89" disallow="tram rail_urban rail rail_electric ship"/>
    <edge id="xedge_00x21" from="node_00x11" to="node_00x10" priority="5" type="highway.undefined" numLanes="1" speed="13.89" disallow="tram rail_urban rail rail_electric ship"/>
    <edge id="xedge_00x22" from="node_00x11" to="node_00x12" priority="5" type="highway.undefined" numLanes="1" speed="13.89" disallow="tram rail_urban rail rail_electric ship"/>
    <edge id="xedge_00x23" from="node_00x12" to="node_00x11" priority="5" type="highway.undefined" numLanes="1" speed="13.89" disallow="tram rail_urban rail rail_electric ship"/>
    <edge id="xedge_00x24" from="node_00x12" to="node_00x13" priority="5" type="highway.undefined" numLanes="1" speed="13.89" disallow="tram rail_urban rail rail_electric ship"/>
    <edge id="xedge_00x25" from="node_00x13" to="node_00x12" priority="5" type="highway.undefined" numLanes="1" speed="13.89" disallow="tram rail_urban rail rail_electric ship"/>
    <edge id="xedge_00x30" from="node_00x15" to="node_00x16" priority="5" type="highway.undefined" numLanes="1" speed="13.89" disallow="tram rail_urban rail rail_electric ship"/>
    <edge id="xedge_00x31" from="node_00x16" to="node_00x15" priority="5" type="highway.undefined" numLanes="1" speed="13.89" disallow="tram rail_urban rail rail_electric ship"/>
    <edge id="xedge_00x32" from="node_00x16" to="node_00x17" priority="5" type="highway.undefined" numLanes="1" speed="13.89" disallow="tram rail_urban rail rail_electric ship"/>
    <edge id="xedge_00x33" from="node_00x17" to="node_00x16" priority="5" type="highway.undefined" numLanes="1" speed="13.89" disallow="tram rail_urban rail rail_electric ship"/>
    <edge id="xedge_00x34" from="node_00x17" to="node_00x18" priority="5" type="highway.undefined" numLanes="1" speed="13.89" disallow="tram rail_urban rail rail_electric ship"/>
    <edge id="xedge_00x35" from="node_00x18" to="node_00x17" priority="5" type="highway.undefined" numLanes="1" speed="13.89" disallow="tram rail_urban rail rail_electric ship"/>
    <edge id="xedge_00x36" from="node_00x18" to="node_00x19" priority="5" type="highway.undefined" numLanes="1" speed="13.89" disallow="tram rail_urban rail rail_electric ship"/>
    <edge id="xedge_00x37" from="node_00x19" to="node_00x18" priority="5" type="highway.undefined" numLanes="1" speed="13.89" disallow="tram rail_urban rail rail_electric ship"/>
    <edge id="xedge_01x00" from="node_01x00" to="node_01x01" priority="5" type="highway.undefined" numLanes="1" speed="13.89" disallow="tram rail_urban rail rail_electric ship"/>
    <edge id="xedge_01x01" from="node_01x01" to="node_01x00" priority="5" type="highway.undefined" numLanes="1" speed="13.89" disallow="tram rail_urban rail rail_electric ship"/>
    <edge id="xedge_01x06" from="node_01x03" to="node_01x04" priority="5" type="highway.undefined" numLanes="1" speed="13.89" disallow="tram rail_urban rail rail_electric ship"/>
    <edge id="xedge_01x07" from="node_01x04" to="node_01x03" priority="5" type="highway.undefined" numLanes="1" speed="13.89" disallow="tram rail_urban rail rail_electric ship"/>
    <edge id="xedge_01x10" from="node_01x05" to="node_01x06" priority="5" type="highway.undefined" numLanes="1" speed="13.89" disallow="tram rail_urban rail rail_electric ship"/>
    <edge id="xedge_01x11" from="node_01x06" to="node_01x05" priority="5" type="highway.undefined" numLanes="1" speed="13.89" disallow="tram rail_urban rail rail_electric ship"/>
    <edge id="xedge_01x16" from="node_01x08" to="node_01x09" priority="5" type="highway.undefined" numLanes="1" speed="13.89" disallow="tram rail_urban rail rail_electric ship"/>
    <edge id="xedge_01x17" from="node_01x09" to="node_01x08" priority="5" type="highway.undefined" numLanes="1" speed="13.89" disallow="tram rail_urban rail rail_electric ship"/>
    <edge id="xedge_01x18" from="node_01x09" to="node_01x10" priority="5" type="highway.undefined" numLanes="1" speed="13.89" disallow="tram rail_urban rail rail_electric ship"/>
    <edge id="xedge_01x19" from="node_01x10" to="node_01x09" priority="5" type="highway.undefined" numLanes="1" speed="13.89" disallow="tram rail_urban rail rail_electric ship"/>
    <edge id="xedge_01x20" from="node_01x10" to="node_01x11" priority="5" type="highway.undefined" numLanes="1" speed="13.89" disallow="tram rail_urban rail rail_electric ship"/>
    <edge id="xedge_01x21" from="node_01x11" to="node_01x10" priority="5" type="highway.undefined" numLanes="1" speed="13.89" disallow="tram rail_urban rail rail_electric ship"/>
    <edge id="xedge_01x24" from="node_01x12" to="node_01x13" priority="5" type="highway.undefined" numLanes="1" speed="13.89" disallow="tram rail_urban rail rail_electric ship"/>
    <edge id="xedge_01x25" from="node_01x13" to="node_01x12" priority="5" type="highway.undefined" numLanes="1" speed="13.89" disallow="tram rail_urban rail rail_electric ship"/>
    <edge id="xedge_01x26" from="node_01x13" to="node_01x14" priority="5" type="highway.undefined" numLanes="1" speed="13.89" disallow="tram rail_urban rail rail_electric ship"/>
    <edge id="xedge_01x27" from="node_01x14" to="node_01x13" priority="5" type="highway.undefined" numLanes="1" speed="13.89" disallow="tram rail_urban rail rail_electric ship"/>
    <edge id="xedge_01x28" from="node_01x14" to="node_01x15" priority="5" type="highway.undefined" numLanes="1" speed="13.89" disallow="tram rail_urban rail rail_electric ship"/>
    <edge id="xedge_01x29" from="node_01x15" to="node_01x14" priority="5" type="highway.undefined" numLanes="1" speed="13.89" disallow="tram rail_urban rail rail_electric ship"/>
    <edge id="xedge_01x32" from="node_01x16" to="node_01x17" priority="5" type="highway.undefined" numLanes="1" speed="13.89" disallow="tram rail_urban rail rail_electric ship"/>
    <edge id="xedge_01x33" from="node_01x17" to="node_01x16" priority="5" type="highway.undefined" numLanes="1" speed="13.89" disallow="tram rail_urban rail rail_electric ship"/>
    <edge id="xedge_01x34" from="node_01x17" to="node_01x18" priority="5" type="highway.undefined" numLanes="1" speed="13.89" disallow="tram rail_urban rail rail_electric ship"/>
    <edge id="xedge_01x35" from="node_01x18" to="node_01x17" priority="5" type="highway.undefined" numLanes="1" speed="13.89" disallow="tram rail_urban rail rail_electric ship"/>
    <edge id="xedge_01x38" from="node_01x19" to="node_01x20" priority="5" type="highway.undefined" numLanes="1" speed="13.89" disallow="tram rail_urban rail rail_electric ship"/>
    <edge id="xedge_01x39" from="node_01x20" to="node_01x19" priority="5" type="highway.undefined" numLanes="1" speed="13.89" disallow="tram rail_urban rail rail_electric ship"/>
    <edge id="xedge_02x02" from="node_02x01" to="node_02x02" priority="5" type="highway.undefined" numLanes="1" speed="13.89" disallow="tram rail_urban rail rail_electric ship"/>
    <edge id="xedge_02x03" from="node_02x02" to="node_02x01" priority="5" type="highway.undefined" numLanes="1" speed="13.89" disallow="tram rail_urban rail rail_electric ship"/>
    <edge id="xedge_02x10" from="node_02x05" to="node_02x06" priority="5" type="highway.undefined" numLanes="1" speed="13.89" disallow="tram rail_urban rail rail_electric ship"/>
    <edge id="xedge_02x11" from="node_02x06" to="node_02x05" priority="5" type="highway.undefined" numLanes="1" speed="13.89" disallow="tram rail_urban rail rail_electric ship"/>
    <edge id="xedge_02x12" from="node_02x06" to="node_02x07" priority="5" type="highway.undefined" numLanes="1" speed="13.89" disallow="tram rail_urban rail rail_electric ship"/>
    <edge id="xedge_02x13" from="node_02x07" to="node_02x06" priority="5" type="highway.undefined" numLanes="1" speed="13.89" disallow="tram rail_urban rail rail_electric ship"/>
    <edge id="xedge_02x14" from="node_02x07" to="node_02x08" priority="5" type="highway.undefined" numLanes="1" speed="13.89" disallow="tram rail_urban rail rail_electric ship"/>
    <edge id="xedge_02x15" from="node_02x08" to="node_02x07" priority="5" type="highway.undefined" numLanes="1" speed="13.89" disallow="tram rail_urban rail rail_electric ship"/>
    <edge id="xedge_02x16" from="node_02x08" to="node_02x09" priority="5" type="highway.undefined" numLanes="1" speed="13.89" disallow="tram rail_urban rail rail_electric ship"/>
    <edge id="xedge_02x17" from="node_02x09" to="node_02x08" priority="5" type="highway.undefined" numLanes="1" speed="13.89" disallow="tram rail_urban rail rail_electric ship"/>
    <edge id="xedge_02x22" from="node_02x11" to="node_02x12" priority="5" type="highway.undefined" numLanes="1" speed="13.89" disallow="tram rail_urban rail rail_electric ship"/>
    <edge id="xedge_02x23" from="node_02x12" to="node_02x11" priority="5" type="highway.undefined" numLanes="1" speed="13.89" disallow="tram rail_urban rail rail_electric ship"/>
    <edge id="xedge_02x28" from="node_02x14" to="node_02x15" priority="5" type="highway.undefined" numLanes="1" speed="13.89" disallow="tram rail_urban rail rail_electric ship"/>
    <edge id="xedge_02x29" from="node_02x15" to="node_02x14" priority="5" type="highway.undefined" numLanes="1" speed="13.89" disallow="tram rail_urban rail rail_electric ship"/>
    <edge id="xedge_02x32" from="node_02x16" to="node_02x17" priority="5" type="highway.undefined" numLanes="1" speed="13.89" disallow="tram rail_urban rail rail_electric ship"/>
    <edge id="xedge_02x33" from="node_02x17" to="node_02x16" priority="5" type="highway.undefined" numLanes="1" speed="13.89" disallow="tram rail_urban rail rail_electric ship"/>
    <edge id="xedge_02x36" from="node_02x18" to="node_02x19" priority="5" type="highway.undefined" numLanes="1" speed="13.89" disallow="tram rail_urban rail rail_electric ship"/>
    <edge id="xedge_02x37" from="node_02x19" to="node_02x18" priority="5" type="highway.undefined" numLanes="1" speed="13.89" disallow="tram rail_urban rail rail_electric ship"/>
    <edge id="xedge_02x38" from="node_02x19" to="node_02x20" priority="5" type="highway.undefined" numLanes="1" speed="13.89" disallow="tram rail_urban rail rail_electric ship"/>
    <edge id="xedge_02x39" from="node_02x20" to="node_02x19" priority="5" type="highway.undefined" numLanes="1" speed="13.89" disallow="tram rail_urban rail rail_electric ship"/>
    <edge id="xedge_03x00" from="node_03x00" to="node_03x01" priority="5" type="highway.undefined" numLanes="1" speed="13.89" disallow="tram rail_urban rail rail_electric ship"/>
    <edge id="xedge_03x01" from="node_03x01" to="node_03x00" priority="5" type="highway.undefined" numLanes="1" speed="13.89" disallow="tram rail_urban rail rail_electric ship"/>
    <edge id="xedge_03x02" from="node_03x01" to="node_03x02" priority="5" type="highway.undefined" numLanes="1" speed="13.89" disallow="tram rail_urban rail rail_electric ship"/>
    <edge id="xedge_03x03" from="node_03x02" to="node_03x01" priority="5" type="highway.undefined" numLanes="1" speed="13.89" disallow="tram rail_urban rail rail_electric ship"/>
    <edge id="xedge_03x04" from="node_03x02" to="node_03x03" priority="5" type="highway.undefined" numLanes="1" speed="13.89" disallow="tram rail_urban rail rail_electric ship"/>
    <edge id="xedge_03x05" from="node_03x03" to="node_03x02" priority="5" type="highway.undefined" numLanes="1" speed="13.89" disallow="tram rail_urban rail rail_electric ship"/>
    <edge id="xedge_03x06" from="node_03x03" to="node_03x04" priority="5" type="highway.undefined" numLanes="1" speed="13.89" disallow="tram rail_urban rail rail_electric ship"/>
    <edge id="xedge_03x07" from="node_03x04" to="node_03x03" priority="5" type="highway.undefined" numLanes="1" speed="13.89" disallow="tram rail_urban rail rail_electric ship"/>
    <edge id="xedge_03x10" from="node_03x05" to="node_03x06" priority="5" type="highway.undefined" numLanes="1" speed="13.89" disallow="tram rail_urban rail rail_electric ship"/>
    <edge id="xedge_03x11" from="node_03x06" to="node_03x05" priority="5" type="highway.undefined" numLanes="1" speed="13.89" disallow="tram rail_urban rail rail_electric ship"/>
    <edge id="xedge_03x12" from="node_03x06" to="node_03x07" priority="5" type="highway.undefined" numLanes="1" speed="13.89" disallow="tram rail_urban rail rail_electric ship"/>
    <edge id="xedge_03x13" from="node_03x07" to="node_03x06" priority="5" type="highway.undefined" numLanes="1" speed="13.89" disallow="tram rail_urban rail rail_electric ship"/>
    <edge id="xedge_03x16" from="node_03x08" to="node_03x09" priority="5" type="highway.undefined" numLanes="1" speed="13.89" disallow="tram rail_urban rail rail_electric ship"/>
    <edge id="xedge_03x17" from="node_03x09" to="node_03x08" priority="5" type="highway.undefined" numLanes="1" speed="13.89" disallow="tram rail_urban rail rail_electric ship"/>
    <edge id="xedge_03x18" from="node_03x09" to="node_03x10" priority="5" type="highway.undefined" numLanes="1" speed="13.89" disallow="tram rail_urban rail rail_electric ship"/>
    <edge id="xedge_03x19" from="node_03x10" to="node_03x09" priority="5" type="highway.undefined" numLanes="1" speed="13.89" disallow="tram rail_urban rail rail_electric ship"/>
    <edge id="xedge_03x20" from="node_03x10" to="node_03x11" priority="5" type="highway.undefined" numLanes="1" speed="13.89" disallow="tram rail_urban rail rail_electric ship"/>
    <edge id="xedge_03x21" from="node_03x11" to="node_03x10" priority="5" type="highway.undefined" numLanes="1" speed="13.89" disallow="tram rail_urban rail rail_electric ship"/>
    <edge id="xedge_03x26" from="node_03x13" to="node_03x14" priority="5" type="highway.undefined" numLanes="1" speed="13.89" disallow="tram rail_urban rail rail_electric ship"/>
    <edge id="xedge_03x27" from="node_03x14" to="node_03x13" priority="5" type="highway.undefined" numLanes="1" speed="13.89" disallow="tram rail_urban rail rail_electric ship"/>
    <edge id="xedge_03x28" from="node_03x14" to="node_03x15" priority="5" type="highway.undefined" numLanes="1" speed="13.89" disallow="tram rail_urban rail rail_electric ship"/>
    <edge id="xedge_03x29" from="node_03x15" to="node_03x14" priority="5" type="highway.undefined" numLanes="1" speed="13.89" disallow="tram rail_urban rail rail_electric ship"/>
    <edge id="xedge_03x30" from="node_03x15" to="node_03x16" priority="5" type="highway.undefined" numLanes="1" speed="13.89" disallow="tram rail_urban rail rail_electric ship"/>
    <edge id="xedge_03x31" from="node_03x16" to="node_03x15" priority="5" type="highway.undefined" numLanes="1" speed="13.89" disallow="tram rail_urban rail rail_electric ship"/>
    <edge id="xedge_03x34" from="node_03x17" to="node_03x18" priority="5" type="highway.undefined" numLanes="1" speed="13.89" disallow="tram rail_urban rail rail_electric ship"/>
    <edge id="xedge_03x35" from="node_03x18" to="node_03x17" priority="5" type="highway.undefined" numLanes="1" speed="13.89" disallow="tram rail_urban rail rail_electric ship"/>
    <edge id="xedge_03x38" from="node_03x19" to="node_03x20" priority="5" type="highway.undefined" numLanes="1" speed="13.89" disallow="tram rail_urban rail rail_electric ship"/>
    <edge id="xedge_03x39" from="node_03x20" to="node_03x19" priority="5" type="highway.undefined" numLanes="1" speed="13.89" disallow="tram rail_urban rail rail_electric ship"/>
    <edge id="xedge_04x04" from="node_04x02" to="node_04x03" priority="5" type="highway.undefined" numLanes="1" speed="13.89" disallow="tram rail_urban rail rail_electric ship"/>
    <edge id="xedge_04x05" from="node_04x03" to="node_04x02" priority="5" type="highway.undefined" numLanes="1" speed="13.89" disallow="tram rail_urban rail rail_electric ship"/>
    <edge id="xedge_04x08" from="node_04x04" to="node_04x05" priority="5" type="highway.undefined" numLanes="1" speed="13.89" disallow="tram rail_urban rail rail_electric ship"/>
    <edge id="xedge_04x09" from="node_04x05" to="node_04x04" priority="5" type="highway.undefined" numLanes="1" speed="13.89" disallow="tram rail_urban rail rail_electric ship"/>
    <edge id="xedge_04x16" from="node_04x08" to="node_04x09" priority="5" type="highway.undefined" numLanes="1" speed="13.89" disallow="tram rail_urban rail rail_electric ship"/>
    <edge id="xedge_04x17" from="node_04x09" to="node_04x08" priority="5" type="highway.undefined" numLanes="1" speed="13.89" disallow="tram rail_urban rail rail_electric ship"/>
    <edge id="xedge_04x18" from="node_04x09" to="node_04x10" priority="5" type="highway.undefined" numLanes="1" speed="13.89" disallow="tram rail_urban rail rail_electric ship"/>
    <edge id="xedge_04x19" from="node_04x10" to="node_04x09" priority="5" type="highway.undefined" numLanes="1" speed="13.89" disallow="tram rail_urban rail rail_electric ship"/>
    <edge id="xedge_04x20" from="node_04x10" to="node_04x11" priority="5" type="highway.undefined" numLanes="1" speed="13.89" disallow="tram rail_urban rail rail_electric ship"/>
    <edge id="xedge_04x21" from="node_04x11" to="node_04x10" priority="5" type="highway.undefined" numLanes="1" speed="13.89" disallow="tram rail_urban rail rail_electric ship"/>
    <edge id="xedge_04x22" from="node_04x11" to="node_04x12" priority="5" type="highway.undefined" numLanes="1" speed="13.89" disallow="tram rail_urban rail rail_electric ship"/>
    <edge id="xedge_04x23" from="node_04x12" to="node_04x11" priority="5" type="highway.undefined" numLanes="1" speed="13.89" disallow="tram rail_urban rail rail_electric ship"/>
    <edge id="xedge_04x24" from="node_04x12" to="node_04x13" priority="5" type="highway.undefined" numLanes="1" speed="13.89" disallow="tram rail_urban rail rail_electric ship"/>
    <edge id="xedge_04x25" from="node_04x13" to="node_04x12" priority="5" type="highway.undefined" numLanes="1" speed="13.89" disallow="tram rail_urban rail rail_electric ship"/>
    <edge id="xedge_04x28" from="node_04x14" to="node_04x15" priority="5" type="highway.undefined" numLanes="1" speed="13.89" disallow="tram rail_urban rail rail_electric ship"/>
    <edge id="xedge_04x29" from="node_04x15" to="node_04x14" priority="5" type="highway.undefined" numLanes="1" speed="13.89" disallow="tram rail_urban rail rail_electric ship"/>
    <edge id="xedge_04x30" from="node_04x15" to="node_04x16" priority="5" type="highway.undefined" numLanes="1" speed="13.89" disallow="tram rail_urban rail rail_electric ship"/>
    <edge id="xedge_04x31" from="node_04x16" to="node_04x15" priority="5" type="highway.undefined" numLanes="1" speed="13.89" disallow="tram rail_urban rail rail_electric ship"/>
    <edge id="xedge_04x36" from="node_04x18" to="node_04x19" priority="5" type="highway.undefined" numLanes="1" speed="13.89" disallow="tram rail_urban rail rail_electric ship"/>
    <edge id="xedge_04x37" from="node_04x19" to="node_04x18" priority="5" type="highway.undefined" numLanes="1" speed="13.89" disallow="tram rail_urban rail rail_electric ship"/>
    <edge id="xedge_04x38" from="node_04x19" to="node_04x20" priority="5" type="highway.undefined" numLanes="1" speed="13.89" disallow="tram rail_urban rail rail_electric ship"/>
    <edge id="xedge_04x39" from="node_04x20" to="node_04x19" priority="5" type="highway.undefined" numLanes="1" speed="13.89" disallow="tram rail_urban rail rail_electric ship"/>
    <edge id="xedge_05x08" from="node_05x04" to="node_05x05" priority="5" type="highway.undefined" numLanes="1" speed="13.89" disallow="tram rail_urban rail rail_electric ship"/>
    <edge id="xedge_05x09" from="node_05x05" to="node_05x04" priority="5" type="highway.undefined" numLanes="1" speed="13.89" disallow="tram rail_urban rail rail_electric ship"/>
    <edge id="xedge_05x14" from="node_05x07" to="node_05x08" priority="5" type="highway.undefined" numLanes="1" speed="13.89" disallow="tram rail_urban rail rail_electric ship"/>
    <edge id="xedge_05x15" from="node_05x08" to="node_05x07" priority="5" type="highway.undefined" numLanes="1" speed="13.89" disallow="tram rail_urban rail rail_electric ship"/>
    <edge id="xedge_05x16" from="node_05x08" to="node_05x09" priority="5" type="highway.undefined" numLanes="1" speed="13.89" disallow="tram rail_urban rail rail_electric ship"/>
    <edge id="xedge_05x17" from="node_05x09" to="node_05x08" priority="5" type="highway.undefined" numLanes="1" speed="13.89" disallow="tram rail_urban rail rail_electric ship"/>
    <edge id="xedge_05x18" from="node_05x09" to="node_05x10" priority="5" type="highway.undefined" numLanes="1" speed="13.89" disallow="tram rail_urban rail rail_electric ship"/>
    <edge id="xedge_05x19" from="node_05x10" to="node_05x09" priority="5" type="highway.undefined" numLanes="1" speed="13.89" disallow="tram rail_urban rail rail_electric ship"/>
    <edge id="xedge_05x20" from="node_05x10" to="node_05x11" priority="5" type="highway.undefined" numLanes="1" speed="13.89" disallow="tram rail_urban rail rail_electric ship"/>
    <edge id="xedge_05x21" from="node_05x11" to="node_05x10" priority="5" type="highway.undefined" numLanes="1" speed="13.89" disallow="tram rail_urban rail rail_electric ship"/>
    <edge id="xedge_05x22" from="node_05x11" to="node_05x12" priority="5" type="highway.undefined" numLanes="1" speed="13.89" disallow="tram rail_urban rail rail_electric ship"/>
    <edge id="xedge_05x23" from="node_05x12" to="node_05x11" priority="5" type="highway.undefined" numLanes="1" speed="13.89" disallow="tram rail_urban rail rail_electric ship"/>
    <edge id="xedge_05x24" from="node_05x12" to="node_05x13" priority="5" type="highway.undefined" numLanes="1" speed="13.89" disallow="tram rail_urban rail rail_electric ship"/>
    <edge id="xedge_05x25" from="node_05x13" to="node_05x12" priority="5" type="highway.undefined" numLanes="1" speed="13.89" disallow="tram rail_urban rail rail_electric ship"/>
    <edge id="xedge_05x26" from="node_05x13" to="node_05x14" priority="5" type="highway.undefined" numLanes="1" speed="13.89" disallow="tram rail_urban rail rail_electric ship"/>
    <edge id="xedge_05x27" from="node_05x14" to="node_05x13" priority="5" type="highway.undefined" numLanes="1" speed="13.89" disallow="tram rail_urban rail rail_electric ship"/>
    <edge id="xedge_05x28" from="node_05x14" to="node_05x15" priority="5" type="highway.undefined" numLanes="1" speed="13.89" disallow="tram rail_urban rail rail_electric ship"/>
    <edge id="xedge_05x29" from="node_05x15" to="node_05x14" priority="5" type="highway.undefined" numLanes="1" speed="13.89" disallow="tram rail_urban rail rail_electric ship"/>
    <edge id="xedge_05x30" from="node_05x15" to="node_05x16" priority="5" type="highway.undefined" numLanes="1" speed="13.89" disallow="tram rail_urban rail rail_electric ship"/>
    <edge id="xedge_05x31" from="node_05x16" to="node_05x15" priority="5" type="highway.undefined" numLanes="1" speed="13.89" disallow="tram rail_urban rail rail_electric ship"/>
    <edge id="xedge_05x32" from="node_05x16" to="node_05x17" priority="5" type="highway.undefined" numLanes="1" speed="13.89" disallow="tram rail_urban rail rail_electric ship"/>
    <edge id="xedge_05x33" from="node_05x17" to="node_05x16" priority="5" type="highway.undefined" numLanes="1" speed="13.89" disallow="tram rail_urban rail rail_electric ship"/>
    <edge id="xedge_05x34" from="node_05x17" to="node_05x18" priority="5" type="highway.undefined" numLanes="1" speed="13.89" disallow="tram rail_urban rail rail_electric ship"/>
    <edge id="xedge_05x35" from="node_05x18" to="node_05x17" priority="5" type="highway.undefined" numLanes="1" speed="13.89" disallow="tram rail_urban rail rail_electric ship"/>
    <edge id="xedge_05x36" from="node_05x18" to="node_05x19" priority="5" type="highway.undefined" numLanes="1" speed="13.89" disallow="tram rail_urban rail rail_electric ship"/>
    <edge id="xedge_05x37" from="node_05x19" to="node_05x18" priority="5" type="highway.undefined" numLanes="1" speed="13.89" disallow="tram rail_urban rail rail_electric ship"/>
    <edge id="xedge_06x00" from="node_06x00" to="node_06x01" priority="5" type="highway.undefined" numLanes="1" speed="13.89" disallow="tram rail_urban rail rail_electric ship"/>
    <edge id="xedge_06x01" from="node_06x01" to="node_06x00" priority="5" type="highway.undefined" numLanes="1" speed="13.89" disallow="tram rail_urban rail rail_electric ship"/>
    <edge id="xedge_06x04" from="node_06x02" to="node_06x03" priority="5" type="highway.undefined" numLanes="1" speed="13.89" disallow="tram rail_urban rail rail_electric ship"/>
    <edge id="xedge_06x05" from="node_06x03" to="node_06x02" priority="5" type="highway.undefined" numLanes="1" speed="13.89" disallow="tram rail_urban rail rail_electric ship"/>
    <edge id="xedge_06x08" from="node_06x04" to="node_06x05" priority="5" type="highway.undefined" numLanes="1" speed="13.89" disallow="tram rail_urban rail rail_electric ship"/>
    <edge id="xedge_06x09" from="node_06x05" to="node_06x04" priority="5" type="highway.undefined" numLanes="1" speed="13.89" disallow="tram rail_urban rail rail_electric ship"/>
    <edge id="xedge_06x10" from="node_06x05" to="node_06x06" priority="5" type="highway.undefined" numLanes="1" speed="13.89" disallow="tram rail_urban rail rail_electric ship"/>
    <edge id="xedge_06x11" from="node_06x06" to="node_06x05" priority="5" type="highway.undefined" numLanes="1" speed="13.89" disallow="tram rail_urban rail rail_electric ship"/>
    <edge id="xedge_06x12" from="node_06x06" to="node_06x07" priority="5" type="highway.undefined" numLanes="1" speed="13.89" disallow="tram rail_urban rail rail_electric ship"/>
    <edge id="xedge_06x13" from="node_06x07" to="node_06x06" priority="5" type="highway.undefined" numLanes="1" speed="13.89" disallow="tram rail_urban rail rail_electric ship"/>
    <edge id="xedge_06x14" from="node_06x07" to="node_06x08" priority="5" type="highway.undefined" numLanes="1" speed="13.89" disallow="tram rail_urban rail rail_electric ship"/>
    <edge id="xedge_06x15" from="node_06x08" to="node_06x07" priority="5" type="highway.undefined" numLanes="1" speed="13.89" disallow="tram rail_urban rail rail_electric ship"/>