<?xml version="1.0" encoding="UTF-8"?>

<!-- generated on 02/15/17 23:10:29 by SUMO netconvert Version 0.27.1
<?xml version="1.0" encoding="UTF-8"?>

<configuration xmlns:xsi="http://www.w3.org/2001/XMLSchema-instance" xsi:noNamespaceSchemaLocation="http://sumo.dlr.de/xsd/netconvertConfiguration.xsd">

    <input>
        <sumo-net-file value="C:\Users\zs633\capstone\10_spherical\test_random4\0_map\test.net.xml"/>
    </input>

    <output>
        <plain-output-prefix value="test"/>
    </output>

    <processing>
        <no-turnarounds value="true"/>
        <offset.disable-normalization value="true"/>
        <lefthand value="false"/>
        <junctions.corner-detail value="0"/>
    </processing>

</configuration>
-->

<connections version="0.27" xmlns:xsi="http://www.w3.org/2001/XMLSchema-instance" xsi:noNamespaceSchemaLocation="http://sumo.dlr.de/xsd/connections_file.xsd">
    <connection from="xedge_00x00" to="xedge_00x02" fromLane="0" toLane="0"/>

    <connection from="xedge_00x01" to="yedge_00x00" fromLane="0" toLane="0"/>

    <connection from="xedge_00x02" to="yedge_02x00" fromLane="0" toLane="0"/>
    <connection from="xedge_00x02" to="xedge_00x04" fromLane="0" toLane="0"/>

    <connection from="xedge_00x03" to="xedge_00x01" fromLane="0" toLane="0"/>

    <connection from="xedge_00x04" to="yedge_03x00" fromLane="0" toLane="0"/>
    <connection from="xedge_00x04" to="xedge_00x06" fromLane="0" toLane="0"/>

    <connection from="xedge_00x05" to="xedge_00x03" fromLane="0" toLane="0"/>
    <connection from="xedge_00x05" to="yedge_02x00" fromLane="0" toLane="0"/>

    <connection from="xedge_00x06" to="xedge_00x07" fromLane="0" toLane="0"/>

    <connection from="xedge_00x07" to="xedge_00x05" fromLane="0" toLane="0"/>
    <connection from="xedge_00x07" to="yedge_03x00" fromLane="0" toLane="0"/>

    <connection from="xedge_00x10" to="yedge_06x00" fromLane="0" toLane="0"/>
    <connection from="xedge_00x10" to="xedge_00x12" fromLane="0" toLane="0"/>

    <connection from="xedge_00x11" to="yedge_05x00" fromLane="0" toLane="0"/>

    <connection from="xedge_00x12" to="yedge_07x00" fromLane="0" toLane="0"/>
    <connection from="xedge_00x12" to="xedge_00x14" fromLane="0" toLane="0"/>

    <connection from="xedge_00x13" to="xedge_00x11" fromLane="0" toLane="0"/>
    <connection from="xedge_00x13" to="yedge_06x00" fromLane="0" toLane="0"/>

    <connection from="xedge_00x14" to="yedge_08x00" fromLane="0" toLane="0"/>

    <connection from="xedge_00x15" to="xedge_00x13" fromLane="0" toLane="0"/>
    <connection from="xedge_00x15" to="yedge_07x00" fromLane="0" toLane="0"/>

    <connection from="xedge_00x18" to="yedge_10x00" fromLane="0" toLane="0"/>
    <connection from="xedge_00x18" to="xedge_00x20" fromLane="0" toLane="0"/>

    <connection from="xedge_00x19" to="yedge_09x00" fromLane="0" toLane="0"/>

    <connection from="xedge_00x20" to="yedge_11x00" fromLane="0" toLane="0"/>
    <connection from="xedge_00x20" to="xedge_00x22" fromLane="0" toLane="0"/>

    <connection from="xedge_00x21" to="xedge_00x19" fromLane="0" toLane="0"/>
    <connection from="xedge_00x21" to="yedge_10x00" fromLane="0" toLane="0"/>

    <connection from="xedge_00x22" to="xedge_00x24" fromLane="0" toLane="0"/>

    <connection from="xedge_00x23" to="xedge_00x21" fromLane="0" toLane="0"/>
    <connection from="xedge_00x23" to="yedge_11x00" fromLane="0" toLane="0"/>

    <connection from="xedge_00x24" to="yedge_13x00" fromLane="0" toLane="0"/>

    <connection from="xedge_00x25" to="xedge_00x23" fromLane="0" toLane="0"/>

    <connection from="xedge_00x30" to="yedge_16x00" fromLane="0" toLane="0"/>
    <connection from="xedge_00x30" to="xedge_00x32" fromLane="0" toLane="0"/>

    <connection from="xedge_00x31" to="yedge_15x00" fromLane="0" toLane="0"/>

    <connection from="xedge_00x32" to="yedge_17x00" fromLane="0" toLane="0"/>
    <connection from="xedge_00x32" to="xedge_00x34" fromLane="0" toLane="0"/>

    <connection from="xedge_00x33" to="xedge_00x31" fromLane="0" toLane="0"/>
    <connection from="xedge_00x33" to="yedge_16x00" fromLane="0" toLane="0"/>

    <connection from="xedge_00x34" to="xedge_00x36" fromLane="0" toLane="0"/>

    <connection from="xedge_00x35" to="xedge_00x33" fromLane="0" toLane="0"/>
    <connection from="xedge_00x35" to="yedge_17x00" fromLane="0" toLane="0"/>

    <connection from="xedge_00x36" to="yedge_19x00" fromLane="0" toLane="0"/>

    <connection from="xedge_00x37" to="xedge_00x35" fromLane="0" toLane="0"/>

    <connection from="xedge_01x00" to="yedge_01x02" fromLane="0" toLane="0"/>

    <connection from="xedge_01x01" to="yedge_00x01" fromLane="0" toLane="0"/>
    <connection from="xedge_01x01" to="yedge_00x02" fromLane="0" toLane="0"/>

    <connection from="xedge_01x06" to="yedge_04x02" fromLane="0" toLane="0"/>

    <connection from="xedge_01x07" to="yedge_03x01" fromLane="0" toLane="0"/>
    <connection from="xedge_01x07" to="yedge_03x02" fromLane="0" toLane="0"/>

    <connection from="xedge_01x10" to="yedge_06x02" fromLane="0" toLane="0"/>
    <connection from="xedge_01x10" to="yedge_06x01" fromLane="0" toLane="0"/>

    <connection from="xedge_01x11" to="yedge_05x01" fromLane="0" toLane="0"/>

    <connection from="xedge_01x16" to="xedge_01x18" fromLane="0" toLane="0"/>
    <connection from="xedge_01x16" to="yedge_09x01" fromLane="0" toLane="0"/>

    <connection from="xedge_01x17" to="yedge_08x01" fromLane="0" toLane="0"/>
    <connection from="xedge_01x17" to="yedge_08x02" fromLane="0" toLane="0"/>

    <connection from="xedge_01x18" to="yedge_10x02" fromLane="0" toLane="0"/>
    <connection from="xedge_01x18" to="xedge_01x20" fromLane="0" toLane="0"/>
    <connection from="xedge_01x18" to="yedge_10x01" fromLane="0" toLane="0"/>

    <connection from="xedge_01x19" to="yedge_09x01" fromLane="0" toLane="0"/>
    <connection from="xedge_01x19" to="xedge_01x17" fromLane="0" toLane="0"/>

    <connection from="xedge_01x20" to="yedge_11x01" fromLane="0" toLane="0"/>

    <connection from="xedge_01x21" to="yedge_10x01" fromLane="0" toLane="0"/>
    <connection from="xedge_01x21" to="xedge_01x19" fromLane="0" toLane="0"/>
    <connection from="xedge_01x21" to="yedge_10x02" fromLane="0" toLane="0"/>

    <connection from="xedge_01x24" to="xedge_01x26" fromLane="0" toLane="0"/>
    <connection from="xedge_01x24" to="yedge_13x01" fromLane="0" toLane="0"/>

    <connection from="xedge_01x25" to="yedge_12x02" fromLane="0" toLane="0"/>

    <connection from="xedge_01x26" to="xedge_01x28" fromLane="0" toLane="0"/>
    <connection from="xedge_01x26" to="yedge_14x01" fromLane="0" toLane="0"/>

    <connection from="xedge_01x27" to="yedge_13x01" fromLane="0" toLane="0"/>
    <connection from="xedge_01x27" to="xedge_01x25" fromLane="0" toLane="0"/>

    <connection from="xedge_01x28" to="yedge_15x01" fromLane="0" toLane="0"/>

    <connection from="xedge_01x29" to="yedge_14x01" fromLane="0" toLane="0"/>
    <connection from="xedge_01x29" to="xedge_01x27" fromLane="0" toLane="0"/>

    <connection from="xedge_01x32" to="yedge_17x02" fromLane="0" toLane="0"/>
    <connection from="xedge_01x32" to="xedge_01x34" fromLane="0" toLane="0"/>
    <connection from="xedge_01x32" to="yedge_17x01" fromLane="0" toLane="0"/>

    <connection from="xedge_01x33" to="yedge_16x01" fromLane="0" toLane="0"/>
    <connection from="xedge_01x33" to="yedge_16x02" fromLane="0" toLane="0"/>

    <connection from="xedge_01x34" to="yedge_18x02" fromLane="0" toLane="0"/>

    <connection from="xedge_01x35" to="yedge_17x01" fromLane="0" toLane="0"/>
    <connection from="xedge_01x35" to="xedge_01x33" fromLane="0" toLane="0"/>
    <connection from="xedge_01x35" to="yedge_17x02" fromLane="0" toLane="0"/>

    <connection from="xedge_01x38" to="yedge_20x02" fromLane="0" toLane="0"/>
    <connection from="xedge_01x38" to="yedge_20x01" fromLane="0" toLane="0"/>

    <connection from="xedge_01x39" to="yedge_19x01" fromLane="0" toLane="0"/>

    <connection from="xedge_02x02" to="yedge_02x03" fromLane="0" toLane="0"/>

    <connection from="xedge_02x03" to="yedge_01x03" fromLane="0" toLane="0"/>
    <connection from="xedge_02x03" to="yedge_01x04" fromLane="0" toLane="0"/>

    <connection from="xedge_02x10" to="xedge_02x12" fromLane="0" toLane="0"/>
    <connection from="xedge_02x10" to="yedge_06x03" fromLane="0" toLane="0"/>

    <connection from="xedge_02x11" to="xedge_02x10" fromLane="0" toLane="0"/>

    <connection from="xedge_02x12" to="yedge_07x04" fromLane="0" toLane="0"/>
    <connection from="xedge_02x12" to="xedge_02x14" fromLane="0" toLane="0"/>

    <connection from="xedge_02x13" to="yedge_06x03" fromLane="0" toLane="0"/>
    <connection from="xedge_02x13" to="xedge_02x11" fromLane="0" toLane="0"/>

    <connection from="xedge_02x14" to="yedge_08x04" fromLane="0" toLane="0"/>
    <connection from="xedge_02x14" to="xedge_02x16" fromLane="0" toLane="0"/>
    <connection from="xedge_02x14" to="yedge_08x03" fromLane="0" toLane="0"/>

    <connection from="xedge_02x15" to="xedge_02x13" fromLane="0" toLane="0"/>
    <connection from="xedge_02x15" to="yedge_07x04" fromLane="0" toLane="0"/>

    <connection from="xedge_02x16" to="yedge_09x04" fromLane="0" toLane="0"/>

    <connection from="xedge_02x17" to="yedge_08x03" fromLane="0" toLane="0"/>
    <connection from="xedge_02x17" to="xedge_02x15" fromLane="0" toLane="0"/>
    <connection from="xedge_02x17" to="yedge_08x04" fromLane="0" toLane="0"/>

    <connection from="xedge_02x22" to="yedge_12x04" fromLane="0" toLane="0"/>
    <connection from="xedge_02x22" to="yedge_12x03" fromLane="0" toLane="0"/>

    <connection from="xedge_02x23" to="xedge_02x22" fromLane="0" toLane="0"/>

    <connection from="xedge_02x28" to="xedge_02x29" fromLane="0" toLane="0"/>

    <connection from="xedge_02x29" to="yedge_14x04" fromLane="0" toLane="0"/>

    <connection from="xedge_02x32" to="yedge_17x03" fromLane="0" toLane="0"/>

    <connection from="xedge_02x33" to="yedge_16x03" fromLane="0" toLane="0"/>

    <connection from="xedge_02x36" to="yedge_19x04" fromLane="0" toLane="0"/>
    <connection from="xedge_02x36" to="xedge_02x38" fromLane="0" toLane="0"/>

    <connection from="xedge_02x37" to="yedge_18x03" fromLane="0" toLane="0"/>
    <connection from="xedge_02x37" to="yedge_18x04" fromLane="0" toLane="0"/>

    <connection from="xedge_02x38" to="yedge_20x03" fromLane="0" toLane="0"/>

    <connection from="xedge_02x39" to="xedge_02x37" fromLane="0" toLane="0"/>
    <connection from="xedge_02x39" to="yedge_19x04" fromLane="0" toLane="0"/>

    <connection from="xedge_03x00" to="xedge_03x02" fromLane="0" toLane="0"/>
    <connection from="xedge_03x00" to="yedge_01x05" fromLane="0" toLane="0"/>

    <connection from="xedge_03x01" to="yedge_00x05" fromLane="0" toLane="0"/>

    <connection from="xedge_03x02" to="yedge_02x06" fromLane="0" toLane="0"/>
    <connection from="xedge_03x02" to="xedge_03x04" fromLane="0" toLane="0"/>

    <connection from="xedge_03x03" to="yedge_01x05" fromLane="0" toLane="0"/>
    <connection from="xedge_03x03" to="xedge_03x01" fromLane="0" toLane="0"/>

    <connection from="xedge_03x04" to="yedge_03x06" fromLane="0" toLane="0"/>
    <connection from="xedge_03x04" to="xedge_03x06" fromLane="0" toLane="0"/>

    <connection from="xedge_03x05" to="xedge_03x03" fromLane="0" toLane="0"/>
    <connection from="xedge_03x05" to="yedge_02x06" fromLane="0" toLane="0"/>

    <connection from="xedge_03x06" to="yedge_04x05" fromLane="0" toLane="0"/>

    <connection from="xedge_03x07" to="xedge_03x05" fromLane="0" toLane="0"/>
    <connection from="xedge_03x07" to="yedge_03x06" fromLane="0" toLane="0"/>

    <connection from="xedge_03x10" to="xedge_03x12" fromLane="0" toLane="0"/>

    <connection from="xedge_03x11" to="yedge_05x06" fromLane="0" toLane="0"/>

    <connection from="xedge_03x12" to="yedge_07x05" fromLane="0" toLane="0"/>

    <connection from="xedge_03x13" to="xedge_03x11" fromLane="0" toLane="0"/>

    <connection from="xedge_03x16" to="xedge_03x18" fromLane="0" toLane="0"/>
    <connection from="xedge_03x16" to="yedge_09x05" fromLane="0" toLane="0"/>

    <connection from="xedge_03x17" to="yedge_08x05" fromLane="0" toLane="0"/>
    <connection from="xedge_03x17" to="yedge_08x06" fromLane="0" toLane="0"/>

    <connection from="xedge_03x18" to="yedge_10x06" fromLane="0" toLane="0"/>
    <connection from="xedge_03x18" to="xedge_03x20" fromLane="0" toLane="0"/>
    <connection from="xedge_03x18" to="yedge_10x05" fromLane="0" toLane="0"/>

    <connection from="xedge_03x19" to="yedge_09x05" fromLane="0" toLane="0"/>
    <connection from="xedge_03x19" to="xedge_03x17" fromLane="0" toLane="0"/>

    <connection from="xedge_03x20" to="xedge_03x21" fromLane="0" toLane="0"/>

    <connection from="xedge_03x21" to="yedge_10x05" fromLane="0" toLane="0"/>
    <connection from="xedge_03x21" to="xedge_03x19" fromLane="0" toLane="0"/>
    <connection from="xedge_03x21" to="yedge_10x06" fromLane="0" toLane="0"/>

    <connection from="xedge_03x26" to="yedge_14x06" fromLane="0" toLane="0"/>
    <connection from="xedge_03x26" to="xedge_03x28" fromLane="0" toLane="0"/>
    <connection from="xedge_03x26" to="yedge_14x05" fromLane="0" toLane="0"/>

    <connection from="xedge_03x27" to="xedge_03x26" fromLane="0" toLane="0"/>

    <connection from="xedge_03x28" to="yedge_15x06" fromLane="0" toLane="0"/>
    <connection from="xedge_03x28" to="xedge_03x30" fromLane="0" toLane="0"/>

    <connection from="xedge_03x29" to="yedge_14x05" fromLane="0" toLane="0"/>
    <connection from="xedge_03x29" to="xedge_03x27" fromLane="0" toLane="0"/>
    <connection from="xedge_03x29" to="yedge_14x06" fromLane="0" toLane="0"/>

    <connection from="xedge_03x30" to="yedge_16x06" fromLane="0" toLane="0"/>

    <connection from="xedge_03x31" to="xedge_03x29" fromLane="0" toLane="0"/>
    <connection from="xedge_03x31" to="yedge_15x06" fromLane="0" toLane="0"/>

    <connection from="xedge_03x34" to="yedge_18x05" fromLane="0" toLane="0"/>

    <connection from="xedge_03x35" to="xedge_03x34" fromLane="0" toLane="0"/>

    <connection from="xedge_03x38" to="xedge_03x39" fromLane="0" toLane="0"/>

    <connection from="xedge_03x39" to="yedge_19x05" fromLane="0" toLane="0"/>
    <connection from="xedge_03x39" to="yedge_19x06" fromLane="0" toLane="0"/>

    <connection from="xedge_04x04" to="yedge_03x08" fromLane="0" toLane="0"/>
    <connection from="xedge_04x04" to="yedge_03x07" fromLane="0" toLane="0"/>

    <connection from="xedge_04x05" to="yedge_02x07" fromLane="0" toLane="0"/>

    <connection from="xedge_04x08" to="yedge_05x08" fromLane="0" toLane="0"/>
    <connection from="xedge_04x08" to="yedge_05x07" fromLane="0" toLane="0"/>

    <connection from="xedge_04x09" to="yedge_04x08" fromLane="0" toLane="0"/>

    <connection from="xedge_04x16" to="xedge_04x18" fromLane="0" toLane="0"/>

    <connection from="xedge_04x17" to="yedge_08x07" fromLane="0" toLane="0"/>
    <connection from="xedge_04x17" to="yedge_08x08" fromLane="0" toLane="0"/>

    <connection from="xedge_04x18" to="yedge_10x08" fromLane="0" toLane="0"/>
    <connection from="xedge_04x18" to="xedge_04x20" fromLane="0" toLane="0"/>
    <connection from="xedge_04x18" to="yedge_10x07" fromLane="0" toLane="0"/>

    <connection from="xedge_04x19" to="xedge_04x17" fromLane="0" toLane="0"/>

    <connection from="xedge_04x20" to="yedge_11x08" fromLane="0" toLane="0"/>
    <connection from="xedge_04x20" to="xedge_04x22" fromLane="0" toLane="0"/>

    <connection from="xedge_04x21" to="yedge_10x07" fromLane="0" toLane="0"/>
    <connection from="xedge_04x21" to="xedge_04x19" fromLane="0" toLane="0"/>
    <connection from="xedge_04x21" to="yedge_10x08" fromLane="0" toLane="0"/>

    <connection from="xedge_04x22" to="xedge_04x24" fromLane="0" toLane="0"/>

    <connection from="xedge_04x23" to="xedge_04x21" fromLane="0" toLane="0"/>
    <connection from="xedge_04x23" to="yedge_11x08" fromLane="0" toLane="0"/>

    <connection from="xedge_04x24" to="xedge_04x25" fromLane="0" toLane="0"/>

    <connection from="xedge_04x25" to="xedge_04x23" fromLane="0" toLane="0"/>

    <connection from="xedge_04x28" to="yedge_15x08" fromLane="0" toLane="0"/>
    <connection from="xedge_04x28" to="xedge_04x30" fromLane="0" toLane="0"/>
    <connection from="xedge_04x28" to="yedge_15x07" fromLane="0" toLane="0"/>

    <connection from="xedge_04x29" to="yedge_14x07" fromLane="0" toLane="0"/>

    <connection from="xedge_04x30" to="yedge_16x08" fromLane="0" toLane="0"/>
    <connection from="xedge_04x30" to="yedge_16x07" fromLane="0" toLane="0"/>

    <connection from="xedge_04x31" to="yedge_15x07" fromLane="0" toLane="0"/>
    <connection from="xedge_04x31" to="xedge_04x29" fromLane="0" toLane="0"/>
    <connection from="xedge_04x31" to="yedge_15x08" fromLane="0" toLane="0"/>

    <connection from="xedge_04x36" to="yedge_19x08" fromLane="0" toLane="0"/>
    <connection from="xedge_04x36" to="xedge_04x38" fromLane="0" toLane="0"/>
    <connection from="xedge_04x36" to="yedge_19x07" fromLane="0" toLane="0"/>

    <connection from="xedge_04x37" to="yedge_18x08" fromLane="0" toLane="0"/>

    <connection from="xedge_04x38" to="yedge_20x08" fromLane="0" toLane="0"/>

    <connection from="xedge_04x39" to="yedge_19x07" fromLane="0" toLane="0"/>
    <connection from="xedge_04x39" to="xedge_04x37" fromLane="0" toLane="0"/>
    <connection from="xedge_04x39" to="yedge_19x08" fromLane="0" toLane="0"/>

    <connection from="xedge_05x08" to="yedge_05x10" fromLane="0" toLane="0"/>
    <connection from="xedge_05x08" to="yedge_05x09" fromLane="0" toLane="0"/>

    <connection from="xedge_05x09" to="yedge_04x09" fromLane="0" toLane="0"/>
    <connection from="xedge_05x09" to="yedge_04x10" fromLane="0" toLane="0"/>

    <connection from="xedge_05x14" to="yedge_08x10" fromLane="0" toLane="0"/>
    <connection from="xedge_05x14" to="xedge_05x16" fromLane="0" toLane="0"/>
    <connection from="xedge_05x14" to="yedge_08x09" fromLane="0" toLane="0"/>

    <connection from="xedge_05x15" to="yedge_07x10" fromLane="0" toLane="0"/>

    <connection from="xedge_05x16" to="yedge_09x10" fromLane="0" toLane="0"/>
    <connection from="xedge_05x16" to="xedge_05x18" fromLane="0" toLane="0"/>

    <connection from="xedge_05x17" to="yedge_08x09" fromLane="0" toLane="0"/>
    <connection from="xedge_05x17" to="xedge_05x15" fromLane="0" toLane="0"/>
    <connection from="xedge_05x17" to="yedge_08x10" fromLane="0" toLane="0"/>

    <connection from="xedge_05x18" to="xedge_05x20" fromLane="0" toLane="0"/>
    <connection from="xedge_05x18" to="yedge_10x09" fromLane="0" toLane="0"/>

    <connection from="xedge_05x19" to="xedge_05x17" fromLane="0" toLane="0"/>
    <connection from="xedge_05x19" to="yedge_09x10" fromLane="0" toLane="0"/>

    <connection from="xedge_05x20" to="xedge_05x22" fromLane="0" toLane="0"/>
    <connection from="xedge_05x20" to="yedge_11x09" fromLane="0" toLane="0"/>

    <connection from="xedge_05x21" to="yedge_10x09" fromLane="0" toLane="0"/>
    <connection from="xedge_05x21" to="xedge_05x19" fromLane="0" toLane="0"/>

    <connection from="xedge_05x22" to="yedge_12x10" fromLane="0" toLane="0"/>
    <connection from="xedge_05x22" to="xedge_05x24" fromLane="0" toLane="0"/>

    <connection from="xedge_05x23" to="yedge_11x09" fromLane="0" toLane="0"/>
    <connection from="xedge_05x23" to="xedge_05x21" fromLane="0" toLane="0"/>

    <connection from="xedge_05x24" to="xedge_05x26" fromLane="0" toLane="0"/>

    <connection from="xedge_05x25" to="xedge_05x23" fromLane="0" toLane="0"/>
    <connection from="xedge_05x25" to="yedge_12x10" fromLane="0" toLane="0"/>

    <connection from="xedge_05x26" to="yedge_14x10" fromLane="0" toLane="0"/>
    <connection from="xedge_05x26" to="xedge_05x28" fromLane="0" toLane="0"/>

    <connection from="xedge_05x27" to="xedge_05x25" fromLane="0" toLane="0"/>

    <connection from="xedge_05x28" to="xedge_05x30" fromLane="0" toLane="0"/>
    <connection from="xedge_05x28" to="yedge_15x09" fromLane="0" toLane="0"/>

    <connection from="xedge_05x29" to="xedge_05x27" fromLane="0" toLane="0"/>
    <connection from="xedge_05x29" to="yedge_14x10" fromLane="0" toLane="0"/>

    <connection from="xedge_05x30" to="xedge_05x32" fromLane="0" toLane="0"/>
    <connection from="xedge_05x30" to="yedge_16x09" fromLane="0" toLane="0"/>

    <connection from="xedge_05x31" to="yedge_15x09" fromLane="0" toLane="0"/>
    <connection from="xedge_05x31" to="xedge_05x29" fromLane="0" toLane="0"/>

    <connection from="xedge_05x32" to="yedge_17x10" fromLane="0" toLane="0"/>
    <connection from="xedge_05x32" to="xedge_05x34" fromLane="0" toLane="0"/>
    <connection from="xedge_05x32" to="yedge_17x09" fromLane="0" toLane="0"/>

    <connection from="xedge_05x33" to="yedge_16x09" fromLane="0" toLane="0"/>
    <connection from="xedge_05x33" to="xedge_05x31" fromLane="0" toLane="0"/>

    <connection from="xedge_05x34" to="yedge_18x10" fromLane="0" toLane="0"/>
    <connection from="xedge_05x34" to="xedge_05x36" fromLane="0" toLane="0"/>
    <connection from="xedge_05x34" to="yedge_18x09" fromLane="0" toLane="0"/>

    <connection from="xedge_05x35" to="yedge_17x09" fromLane="0" toLane="0"/>
    <connection from="xedge_05x35" to="xedge_05x33" fromLane="0" toLane="0"/>
    <connection from="xedge_05x35" to="yedge_17x10" fromLane="0" toLane="0"/>

    <connection from="xedge_05x36" to="yedge_19x10" fromLane="0" toLane="0"/>
    <connection from="xedge_05x36" to="yedge_19x09" fromLane="0" toLane="0"/>

    <connection from="xedge_05x37" to="yedge_18x09" fromLane="0" toLane="0"/>
    <connection from="xedge_05x37" to="xedge_05x35" fromLane="0" toLane="0"/>
    <connection from="xedge_05x37" to="yedge_18x10" fromLane="0" toLane="0"/>

    <connection from="xedge_06x00" to="yedge_01x12" fromLane="0" toLane="0"/>
    <connection from="xedge_06x00" to="yedge_01x11" fromLane="0" toLane="0"/>

    <connection from="xedge_06x01" to="yedge_00x11" fromLane="0" toLane="0"/>

    <connection from="xedge_06x04" to="yedge_03x12" fromLane="0" toLane="0"/>
    <connection from="xedge_06x04" to="yedge_03x11" fromLane="0" toLane="0"/>

    <connection from="xedge_06x05" to="yedge_02x12" fromLane="0" toLane="0"/>

    <connection from="xedge_06x08" to="xedge_06x10" fromLane="0" toLane="0"/>
    <connection from="xedge_06x08" to="yedge_05x11" fromLane="0" toLane="0"/>

    <connection from="xedge_06x09" to="yedge_04x11" fromLane="0" toLane="0"/>
    <connection from="xedge_06x09" to="yedge_04x12" fromLane="0" toLane="0"/>

    <connection from="xedge_06x10" to="yedge_06x12" fromLane="0" toLane="0"/>
    <connection from="xedge_06x10" to="xedge_06x12" fromLane="0" toLane="0"/>
    <connection from="xedge_06x10" to="yedge_06x11" fromLane="0" toLane="0"/>

    <connection from="xedge_06x11" to="yedge_05x11" fromLane="0" toLane="0"/>
    <connection from="xedge_06x11" to="xedge_06x09" fromLane="0" toLane="0"/>

    <connection from="xedge_06x12" to="yedge_07x12" fromLane="0" toLane="0"/>
    <connection from="xedge_06x12" to="xedge_06x14" fromLane="0" toLane="0"/>
    <connection from="xedge_06x12" to="yedge_07x11" fromLane="0" toLane="0"/>

    <connection from="xedge_06x13" to="yedge_06x11" fromLane="0" toLane="0"/>
    <connection from="xedge_06x13" to="xedge_06x11" fromLane="0" toLane="0"/>
    <connection from="xedge_06x13" to="yedge_06x12" fromLane="0" toLane="0"/>

    <connection from="xedge_06x14" to="yedge_08x12" fromLane="0" toLane="0"/>
    <connection from="xedge_06x14" to="xedge_06x16" fromLane="0" toLane="0"/>
    <connection from="xedge_06x14" to="yedge_08x11" fromLane="0" toLane="0"/>

    <connection from="xedge_06x15" to="yedge_07x11" fromLane="0" toLane="0"/>
    <connection from="xedge_06x15" to="xedge_06x13" fromLane="0" toLane="0"/>
    <connection from="xedge_06x15" to="yedge_07x12" fromLane="0" toLane="0"/>

    <connection from="xedge_06x16" to="xedge_06x18" fromLane="0" toLane="0"/>
    <connection from="xedge_06x16" to="yedge_09x11" fromLane="0" toLane="0"/>

    <connection from="xedge_06x17" to="yedge_08x11" fromLane="0" toLane="0"/>
    <connection from="xedge_06x17" to="xedge_06x15" fromLane="0" toLane="0"/>
    <connection from="xedge_06x17" to="yedge_08x12" fromLane="0" toLane="0"/>

    <connection from="xedge_06x18" to="yedge_10x12" fromLane="0" toLane="0"/>
    <connection from="xedge_06x18" to="xedge_06x20" fromLane="0" toLane="0"/>

    <connection from="xedge_06x19" to="yedge_09x11" fromLane="0" toLane="0"/>
    <connection from="xedge_06x19" to="xedge_06x17" fromLane="0" toLane="0"/>

    <connection from="xedge_06x20" to="yedge_11x12" fromLane="0" toLane="0"/>
    <connection from="xedge_06x20" to="xedge_06x22" fromLane="0" toLane="0"/>

    <connection from="xedge_06x21" to="xedge_06x19" fromLane="0" toLane="0"/>
    <connection from="xedge_06x21" to="yedge_10x12" fromLane="0" toLane="0"/>

    <connection from="xedge_06x22" to="xedge_06x24" fromLane="0" toLane="0"/>
    <connection from="xedge_06x22" to="yedge_12x11" fromLane="0" toLane="0"/>

    <connection from="xedge_06x23" to="xedge_06x21" fromLane="0" toLane="0"/>
    <connection from="xedge_06x23" to="yedge_11x12" fromLane="0" toLane="0"/>

    <connection from="xedge_06x24" to="yedge_13x12" fromLane="0" toLane="0"/>
    <connection from="xedge_06x24" to="xedge_06x26" fromLane="0" toLane="0"/>

    <connection from="xedge_06x25" to="yedge_12x11" fromLane="0" toLane="0"/>
    <connection from="xedge_06x25" to="xedge_06x23" fromLane="0" toLane="0"/>

    <connection from="xedge_06x26" to="yedge_14x11" fromLane="0" toLane="0"/>

    <connection from="xedge_06x27" to="xedge_06x25" fromLane="0" toLane="0"/>
    <connection from="xedge_06x27" to="yedge_13x12" fromLane="0" toLane="0"/>

    <connection from="xedge_06x30" to="xedge_06x31" fromLane="0" toLane="0"/>

    <connection from="xedge_06x31" to="yedge_15x12" fromLane="0" toLane="0"/>

    <connection from="xedge_06x34" to="xedge_06x36" fromLane="0" toLane="0"/>
    <connection from="xedge_06x34" to="yedge_18x11" fromLane="0" toLane="0"/>

    <connection from="xedge_06x35" to="yedge_17x11" fromLane="0" toLane="0"/>
    <connection from="xedge_06x35" to="yedge_17x12" fromLane="0" toLane="0"/>

    <connection from="xedge_06x36" to="yedge_19x12" fromLane="0" toLane="0"/>
    <connection from="xedge_06x36" to="xedge_06x38" fromLane="0" toLane="0"/>
    <connection from="xedge_06x36" to="yedge_19x11" fromLane="0" toLane="0"/>

    <connection from="xedge_06x37" to="yedge_18x11" fromLane="0" toLane="0"/>
    <connection from="xedge_06x37" to="xedge_06x35" fromLane="0" toLane="0"/>

    <connection from="xedge_06x38" to="yedge_20x12" fromLane="0" toLane="0"/>
    <connection from="xedge_06x38" to="yedge_20x11" fromLane="0" toLane="0"/>

    <connection from="xedge_06x39" to="yedge_19x11" fromLane="0" toLane="0"/>
    <connection from="xedge_06x39" to="xedge_06x37" fromLane="0" toLane="0"/>
    <connection from="xedge_06x39" to="yedge_19x12" fromLane="0" toLane="0"/>

    <connection from="xedge_07x00" to="yedge_01x14" fromLane="0" toLane="0"/>
    <connection from="xedge_07x00" to="yedge_01x13" fromLane="0" toLane="0"/>

    <connection from="xedge_07x01" to="yedge_00x14" fromLane="0" toLane="0"/>

    <connection from="xedge_07x04" to="yedge_03x14" fromLane="0" toLane="0"/>
    <connection from="xedge_07x04" to="xedge_07x06" fromLane="0" toLane="0"/>
    <connection from="xedge_07x04" to="yedge_03x13" fromLane="0" toLane="0"/>

    <connection from="xedge_07x05" to="yedge_02x13" fromLane="0" toLane="0"/>

    <connection from="xedge_07x06" to="xedge_07x08" fromLane="0" toLane="0"/>
    <connection from="xedge_07x06" to="yedge_04x13" fromLane="0" toLane="0"/>

    <connection from="xedge_07x07" to="yedge_03x13" fromLane="0" toLane="0"/>
    <connection from="xedge_07x07" to="xedge_07x05" fromLane="0" toLane="0"/>
    <connection from="xedge_07x07" to="yedge_03x14" fromLane="0" toLane="0"/>

    <connection from="xedge_07x08" to="yedge_05x14" fromLane="0" toLane="0"/>
    <connection from="xedge_07x08" to="xedge_07x10" fromLane="0" toLane="0"/>

    <connection from="xedge_07x09" to="yedge_04x13" fromLane="0" toLane="0"/>
    <connection from="xedge_07x09" to="xedge_07x07" fromLane="0" toLane="0"/>

    <connection from="xedge_07x10" to="xedge_07x12" fromLane="0" toLane="0"/>
    <connection from="xedge_07x10" to="yedge_06x13" fromLane="0" toLane="0"/>

    <connection from="xedge_07x11" to="xedge_07x09" fromLane="0" toLane="0"/>
    <connection from="xedge_07x11" to="yedge_05x14" fromLane="0" toLane="0"/>

    <connection from="xedge_07x12" to="yedge_07x13" fromLane="0" toLane="0"/>

    <connection from="xedge_07x13" to="yedge_06x13" fromLane="0" toLane="0"/>
    <connection from="xedge_07x13" to="xedge_07x11" fromLane="0" toLane="0"/>

    <connection from="xedge_07x16" to="xedge_07x18" fromLane="0" toLane="0"/>

    <connection from="xedge_07x17" to="yedge_08x13" fromLane="0" toLane="0"/>

    <connection from="xedge_07x18" to="yedge_10x14" fromLane="0" toLane="0"/>
    <connection from="xedge_07x18" to="xedge_07x20" fromLane="0" toLane="0"/>
    <connection from="xedge_07x18" to="yedge_10x13" fromLane="0" toLane="0"/>

    <connection from="xedge_07x19" to="xedge_07x17" fromLane="0" toLane="0"/>

    <connection from="xedge_07x20" to="yedge_11x14" fromLane="0" toLane="0"/>
    <connection from="xedge_07x20" to="xedge_07x22" fromLane="0" toLane="0"/>
    <connection from="xedge_07x20" to="yedge_11x13" fromLane="0" toLane="0"/>

    <connection from="xedge_07x21" to="yedge_10x13" fromLane="0" toLane="0"/>
    <connection from="xedge_07x21" to="xedge_07x19" fromLane="0" toLane="0"/>
    <connection from="xedge_07x21" to="yedge_10x14" fromLane="0" toLane="0"/>

    <connection from="xedge_07x22" to="yedge_12x14" fromLane="0" toLane="0"/>
    <connection from="xedge_07x22" to="xedge_07x24" fromLane="0" toLane="0"/>
