<?xml version='1.0' encoding='UTF-8'?>
<nodes xmlns:xsi="http://www.w3.org/2001/XMLSchema-instance" version="0.27" xsi:noNamespaceSchemaLocation="http://sumo.dlr.de/xsd/nodes_file.xsd">
    <location convBoundary="2208.92,522.44,21219.92,15402.46" netOffset="-224973.31,-2700122.99" origBoundary="54.286966,24.391306,54.609531,24.591038" projParameter="+proj=utm +zone=40 +ellps=WGS84 +datum=WGS84 +units=m +no_defs" />

    <node id="node_0" type="priority" x="2952.0" y="-2237.2" />
    <node id="node_1" type="priority" x="1540.2" y="3027.8" />
    <node id="node_2" type="priority" x="-28.652" y="2138.2" />
    <node id="node_3" tl="GS_1003388266" type="traffic_light" x="-794.94" y="185.46" />
    <node id="node_4" type="priority" x="-654.33" y="73.502" />
    <node id="node_5" type="priority" x="-795.56" y="180.91" />
    <node id="node_6" tl="GS_1003388319" type="traffic_light" x="-505.02" y="111.28" />
    <node id="node_7" type="priority" x="-1377.3" y="1962.9" />
    <node id="node_8" type="priority" x="-1061.6" y="1218.1" />
    <node id="node_9" type="priority" x="-762.81" y="1116.7" />
    <node id="node_10" type="priority" x="-7354.7" y="855.32" />
    <node id="node_11" type="priority" x="-7213.1" y="839.82" />
    <node id="node_12" type="priority" x="-12097.0" y="-279.9" />
    <node id="node_13" type="priority" x="-6751.9" y="-434.82" />
    <node id="node_14" type="unregulated" x="-9031.2" y="182.33" />
    <node id="node_15" type="unregulated" x="-9056.9" y="105.81" />
    <node id="node_16" type="priority" x="-10340.0" y="-577.38" />
    <node id="node_17" type="priority" x="10739.0" y="-3566.4" />
    <node id="node_18" type="priority" x="10618.0" y="-3598.2" />
    <node id="node_19" type="priority" x="-845.82" y="1184.9" />
    <node id="node_20" type="priority" x="-914.95" y="1130.8" />
    <node id="node_21" type="priority" x="-881.99" y="1158.9" />
    <node id="node_22" type="priority" x="-2841.0" y="2783.5" />
    <node id="node_23" type="priority" x="-899.41" y="1141.5" />
    <node id="node_24" type="priority" x="-2857.2" y="2932.1" />
    <node id="node_25" type="priority" x="-1606.5" y="996.75" />
    <node id="node_26" type="priority" x="-1774.8" y="910.51" />
    <node id="node_27" type="priority" x="-6004.1" y="853.65" />
    <node id="node_28" type="priority" x="-2092.1" y="1212.6" />
    <node id="node_29" type="priority" x="-2140.4" y="1486.2" />
    <node id="node_30" type="priority" x="-1691.2" y="1127.0" />
    <node id="node_31" type="priority" x="-1716.1" y="931.64" />
    <node id="node_32" type="priority" x="-2094.2" y="1452.7" />
    <node id="node_33" type="priority" x="-1721.1" y="922.15" />
    <node id="node_34" type="priority" x="-2189.2" y="1531.4" />
    <node id="node_35" type="priority" x="-1752.6" y="902.86" />
    <node id="node_36" type="priority" x="-2439.3" y="3284.7" />
    <node id="node_37" type="priority" x="-2497.0" y="3906.1" />
    <node id="node_38" type="priority" x="-2975.5" y="4048.8" />
    <node id="node_39" type="priority" x="-3429.4" y="3401.1" />
    <node id="node_40" type="priority" x="-2013.7" y="2948.3" />
    <node id="node_41" type="priority" x="-3318.1" y="4901.9" />
    <node id="node_42" type="priority" x="-2779.5" y="4008.1" />
    <node id="node_43" type="priority" x="-1773.1" y="2581.5" />
    <node id="node_44" type="priority" x="-3392.9" y="4041.2" />
    <node id="node_45" type="priority" x="-2481.8" y="3335.4" />
    <node id="node_46" type="priority" x="-1512.7" y="1046.7" />
    <node id="node_47" type="priority" x="-1519.5" y="1041.2" />
    <node id="node_48" type="priority" x="-1530.6" y="1049.2" />
    <node id="node_49" type="priority" x="-1515.5" y="1051.2" />
    <node id="node_50" type="priority" x="-1517.3" y="1028.5" />
    <node id="node_51" type="priority" x="-1521.2" y="1038.5" />
    <node id="node_52" type="priority" x="-1517.1" y="1046.9" />
    <node id="node_53" type="priority" x="-1527.0" y="1043.1" />
    <node id="node_54" type="priority" x="-1493.8" y="930.5" />
    <node id="node_55" type="priority" x="-1513.8" y="936.38" />
    <node id="node_56" type="priority" x="3918.2" y="4161.8" />
    <node id="node_57" type="priority" x="-1663.4" y="150.68" />
    <node id="node_58" type="priority" x="-1516.6" y="112.76" />
    <node id="node_59" type="priority" x="-1537.7" y="105.6" />
    <node id="node_60" type="priority" x="-1516.2" y="118.13" />
    <node id="node_61" type="priority" x="-1664.8" y="133.74" />
    <node id="node_62" type="priority" x="-1552.9" y="111.87" />
    <node id="node_63" type="priority" x="-1549.1" y="111.01" />
    <node id="node_64" type="priority" x="-1539.1" y="114.59" />
    <node id="node_65" type="priority" x="-1540.2" y="98.855" />
    <node id="node_66" type="priority" x="-1527.0" y="121.0" />
    <node id="node_67" type="priority" x="-1549.3" y="104.44" />
    <node id="node_68" type="priority" x="-1632.9" y="68.347" />
    <node id="node_69" type="priority" x="-1587.2" y="109.2" />
    <node id="node_70" type="priority" x="-2179.5" y="-489.73" />
    <node id="node_71" type="priority" x="-1846.0" y="-197.95" />
    <node id="node_72" type="priority" x="-1917.6" y="-271.65" />
    <node id="node_73" type="priority" x="-2703.3" y="-708.28" />
    <node id="node_74" type="priority" x="-1741.6" y="-1.9637" />
    <node id="node_75" type="priority" x="-2413.2" y="-523.24" />
    <node id="node_76" type="unregulated" x="-3128.8" y="-1359.7" />
    <node id="node_77" type="priority" x="-2349.0" y="-547.62" />
    <node id="node_78" type="priority" x="-1860.7" y="-203.75" />
    <node id="node_79" type="priority" x="-2962.4" y="-881.65" />
    <node id="node_80" type="unregulated" x="-3287.3" y="-1481.0" />
    <node id="node_81" type="priority" x="-2447.6" y="-609.4" />
    <node id="node_82" type="priority" x="-2835.3" y="-830.58" />
    <node id="node_83" type="priority" x="-2659.1" y="-740.23" />
    <node id="node_84" type="priority" x="-2539.0" y="-668.91" />
    <node id="node_85" type="priority" x="-7202.2" y="-2575.6" />
    <node id="node_86" type="priority" x="-6211.9" y="-1912.9" />
    <node id="node_87" type="priority" x="-6587.4" y="-2030.3" />
    <node id="node_88" type="priority" x="-3017.1" y="-1135.5" />
    <node id="node_89" type="priority" x="-2016.5" y="-366.66" />
    <node id="node_90" type="priority" x="-2264.5" y="-557.6" />
    <node id="node_91" type="priority" x="-2988.4" y="-1014.8" />
    <node id="node_92" type="priority" x="-3617.3" y="-1462.8" />
    <node id="node_93" type="priority" x="-3445.2" y="-945.34" />
    <node id="node_94" type="priority" x="-1517.6" y="-92.484" />
    <node id="node_95" type="priority" x="-1516.7" y="-44.306" />
    <node id="node_96" type="priority" x="-1511.3" y="-61.079" />
    <node id="node_97" type="priority" x="-1579.2" y="-40.781" />
    <node id="node_98" type="priority" x="-1593.2" y="-189.56" />
    <node id="node_99" type="priority" x="-1518.4" y="-93.581" />
    <node id="node_100" type="priority" x="-1516.4" y="-73.757" />
    <node id="node_101" type="priority" x="-1597.1" y="-26.69" />
    <node id="node_102" type="priority" x="-1704.6" y="-358.97" />
    <node id="node_103" type="priority" x="-2144.6" y="-796.83" />
    <node id="node_104" type="priority" x="-2129.9" y="-763.45" />
    <node id="node_105" type="priority" x="-1571.6" y="-81.814" />
    <node id="node_106" type="priority" x="-1516.8" y="-42.958" />
    <node id="node_107" type="priority" x="-2165.1" y="-829.19" />
    <node id="node_108" type="priority" x="-2109.3" y="-750.45" />
    <node id="node_109" type="priority" x="-1591.1" y="-34.883" />
    <node id="node_110" type="priority" x="-1891.5" y="-585.9" />
    <node id="node_111" type="priority" x="-1569.2" y="-239.34" />
    <node id="node_112" type="priority" x="-1512.6" y="-52.972" />
    <node id="node_113" type="priority" x="-1668.5" y="-154.83" />
    <node id="node_114" type="priority" x="-1525.5" y="-75.858" />
    <node id="node_115" type="priority" x="-1518.4" y="-45.036" />
    <node id="node_116" type="priority" x="-1514.0" y="-45.416" />
    <node id="node_117" type="priority" x="-1514.1" y="-109.66" />
    <node id="node_118" type="priority" x="-1510.1" y="-60.425" />
    <node id="node_119" type="priority" x="-1685.5" y="-168.22" />
    <node id="node_120" type="priority" x="-1584.4" y="-28.588" />
    <node id="node_121" type="priority" x="-1511.0" y="-56.997" />
    <node id="node_122" type="priority" x="-1696.9" y="-395.59" />
    <node id="node_123" type="priority" x="-1515.0" y="-75.339" />
    <node id="node_124" type="priority" x="-1833.5" y="-518.78" />
    <node id="node_125" type="priority" x="-1617.6" y="-106.85" />
    <node id="node_126" type="priority" x="-1615.3" y="-59.861" />
    <node id="node_127" type="priority" x="-1514.3" y="-76.774" />
    <node id="node_128" type="priority" x="-1183.4" y="-133.46" />
    <node id="node_129" type="priority" x="-1192.4" y="-182.49" />
    <node id="node_130" type="priority" x="-1346.3" y="-712.76" />
    <node id="node_131" type="priority" x="-1179.6" y="-148.17" />
    <node id="node_132" type="priority" x="-1495.6" y="143.08" />
    <node id="node_133" tl="GS_1052165761" type="traffic_light" x="-729.41" y="226.1" />
    <node id="node_134" type="priority" x="-1838.8" y="138.77" />
    <node id="node_135" type="priority" x="-1114.4" y="-797.18" />
    <node id="node_136" type="priority" x="-1598.9" y="-1683.9" />
    <node id="node_137" type="priority" x="-1532.3" y="-1514.8" />
    <node id="node_138" type="priority" x="-1324.1" y="266.41" />
    <node id="node_139" type="priority" x="-3365.1" y="169.3" />
    <node id="node_140" type="priority" x="-1490.3" y="148.26" />
    <node id="node_141" type="priority" x="-1874.6" y="145.43" />
    <node id="node_142" type="priority" x="-2231.8" y="838.25" />
    <node id="node_143" type="priority" x="-1436.3" y="177.86" />
    <node id="node_144" type="priority" x="-1100.7" y="-379.36" />
    <node id="node_145" type="priority" x="-1428.8" y="227.45" />
    <node id="node_146" type="priority" x="-1831.1" y="153.85" />
    <node id="node_147" type="priority" x="-1548.7" y="221.32" />
    <node id="node_148" type="priority" x="556.74" y="378.34" />
    <node id="node_149" type="priority" x="-811.64" y="-457.15" />
    <node id="node_150" type="priority" x="-1500.8" y="153.29" />
    <node id="node_151" type="priority" x="-1712.6" y="-1681.9" />
    <node id="node_152" type="priority" x="-770.47" y="-304.3" />
    <node id="node_153" type="priority" x="-1447.9" y="186.5" />
    <node id="node_154" type="priority" x="-1411.7" y="-1255.0" />
    <node id="node_155" type="priority" x="-1494.9" y="-1429.8" />
    <node id="node_156" type="priority" x="-1329.2" y="-1564.4" />
    <node id="node_157" type="priority" x="-1438.1" y="183.97" />
    <node id="node_158" type="priority" x="-1119.7" y="-486.93" />
    <node id="node_159" type="priority" x="-1488.7" y="153.1" />
    <node id="node_160" type="priority" x="-997.03" y="-409.08" />
    <node id="node_161" type="priority" x="-812.03" y="210.38" />
    <node id="node_162" type="priority" x="-1817.0" y="142.75" />
    <node id="node_163" type="priority" x="-1400.0" y="163.71" />
    <node id="node_164" type="priority" x="-1888.1" y="148.47" />
    <node id="node_165" type="priority" x="-1844.2" y="158.71" />
    <node id="node_166" type="priority" x="-2675.3" y="254.82" />
    <node id="node_167" type="priority" x="-796.49" y="199.39" />
    <node id="node_168" type="priority" x="-1881.8" y="105.45" />
    <node id="node_169" type="priority" x="-1414.6" y="-1121.3" />
    <node id="node_170" type="priority" x="-2042.2" y="757.63" />
    <node id="node_171" tl="GS_1052166069" type="traffic_light" x="-724.96" y="208.23" />
    <node id="node_172" type="priority" x="-1401.2" y="-1192.8" />
    <node id="node_173" type="priority" x="-1834.4" y="166.21" />
    <node id="node_174" type="priority" x="-1084.3" y="-706.7" />
    <node id="node_175" type="priority" x="-1447.6" y="180.54" />
    <node id="node_176" type="priority" x="-1500.0" y="148.97" />
    <node id="node_177" type="priority" x="-3131.5" y="295.92" />
    <node id="node_178" type="priority" x="-1222.8" y="189.36" />
    <node id="node_179" type="priority" x="-1326.6" y="-1109.2" />
    <node id="node_180" type="priority" x="-1493.7" y="155.02" />
    <node id="node_181" type="priority" x="-1550.6" y="-1431.0" />
    <node id="node_182" type="priority" x="-819.19" y="190.47" />
    <node id="node_183" type="priority" x="-1461.9" y="-1229.4" />
    <node id="node_184" type="priority" x="-1571.6" y="217.12" />
    <node id="node_185" type="priority" x="-1276.0" y="-1022.9" />
    <node id="node_186" tl="GS_1052166282" type="traffic_light" x="-752.48" y="166.42" />
    <node id="node_187" type="priority" x="-1594.5" y="918.5" />
    <node id="node_188" type="priority" x="-1499.9" y="918.63" />
    <node id="node_189" type="priority" x="-1991.6" y="1892.1" />
    <node id="node_190" type="priority" x="-1428.5" y="1032.1" />
    <node id="node_191" type="priority" x="-1385.6" y="1114.9" />
    <node id="node_192" type="priority" x="-1389.1" y="1120.7" />
    <node id="node_193" type="priority" x="-1356.9" y="1107.1" />
    <node id="node_194" type="priority" x="-1764.8" y="1238.8" />
    <node id="node_195" type="priority" x="-1392.6" y="1124.7" />
    <node id="node_196" type="priority" x="-1421.0" y="1033.1" />
    <node id="node_197" type="priority" x="-1556.3" y="1101.8" />
    <node id="node_198" type="priority" x="-1595.9" y="1443.9" />
    <node id="node_199" type="priority" x="-1433.5" y="1234.7" />
    <node id="node_200" type="priority" x="-1546.0" y="879.27" />
    <node id="node_201" type="priority" x="-1503.4" y="999.8" />
    <node id="node_202" type="priority" x="-1434.6" y="864.6" />
    <node id="node_203" type="priority" x="-1459.5" y="994.93" />
    <node id="node_204" type="priority" x="-1413.4" y="899.17" />
    <node id="node_205" type="priority" x="-1478.8" y="971.43" />
    <node id="node_206" type="priority" x="-1482.5" y="1033.6" />
    <node id="node_207" type="priority" x="-1479.6" y="1256.5" />
    <node id="node_208" type="priority" x="-1483.7" y="955.96" />
    <node id="node_209" type="priority" x="-1533.0" y="1471.8" />
    <node id="node_210" type="priority" x="-1411.1" y="1160.1" />
    <node id="node_211" type="priority" x="-1695.9" y="1265.0" />
    <node id="node_212" type="priority" x="-1467.1" y="1010.8" />
    <node id="node_213" type="priority" x="-1453.2" y="1268.2" />
    <node id="node_214" type="priority" x="-1615.7" y="1432.7" />
    <node id="node_215" type="priority" x="-1386.3" y="1117.6" />
    <node id="node_216" type="priority" x="-1429.1" y="861.53" />
    <node id="node_217" type="priority" x="-1575.9" y="1575.6" />
    <node id="node_218" type="priority" x="-1355.8" y="1107.7" />
    <node id="node_219" type="priority" x="-1359.4" y="1107.6" />
    <node id="node_220" type="priority" x="-1385.7" y="1113.6" />
    <node id="node_221" type="priority" x="-1313.1" y="1072.6" />
    <node id="node_222" type="priority" x="-1849.2" y="1669.9" />
    <node id="node_223" type="priority" x="-1505.9" y="922.47" />
    <node id="node_224" type="priority" x="-1681.7" y="1514.8" />
    <node id="node_225" type="priority" x="-1516.8" y="953.14" />
    <node id="node_226" type="priority" x="-1311.6" y="1071.2" />
    <node id="node_227" type="priority" x="-1528.6" y="878.78" />
    <node id="node_228" type="priority" x="-1270.9" y="1069.4" />
    <node id="node_229" tl="GS_1061695272" type="traffic_light" x="-1403.7" y="1089.2" />
    <node id="node_230" type="priority" x="-1505.8" y="995.92" />
    <node id="node_231" tl="GS_1061695290" type="traffic_light" x="-1452.4" y="1125.4" />
    <node id="node_232" type="priority" x="-1421.4" y="876.68" />
    <node id="node_233" type="priority" x="-937.61" y="-26.152" />
    <node id="node_234" type="priority" x="-645.57" y="-18.934" />
    <node id="node_235" type="priority" x="-539.76" y="-666.13" />
    <node id="node_236" type="priority" x="-534.83" y="-680.66" />
    <node id="node_237" type="priority" x="-721.7" y="46.077" />
    <node id="node_238" type="priority" x="-443.3" y="-429.81" />
    <node id="node_239" type="priority" x="-969.83" y="-512.35" />
    <node id="node_240" type="priority" x="-335.17" y="-98.275" />
    <node id="node_241" type="priority" x="-970.06" y="-87.043" />
    <node id="node_242" type="priority" x="-961.22" y="-134.42" />
    <node id="node_243" type="priority" x="-2530.1" y="693.59" />
    <node id="node_244" type="priority" x="-1774.5" y="541.04" />
    <node id="node_245" type="priority" x="-3397.3" y="892.56" />
    <node id="node_246" type="priority" x="-1685.2" y="524.44" />
    <node id="node_247" type="priority" x="-2463.6" y="859.6" />
    <node id="node_248" type="priority" x="-2353.6" y="619.51" />
    <node id="node_249" type="priority" x="-1935.7" y="862.61" />
    <node id="node_250" type="priority" x="-2909.1" y="770.76" />
    <node id="node_251" type="priority" x="-3059.5" y="1107.4" />
    <node id="node_252" type="priority" x="-3281.5" y="877.03" />
    <node id="node_253" type="priority" x="-2068.5" y="938.21" />
    <node id="node_254" type="priority" x="-2025.0" y="773.81" />
    <node id="node_255" type="priority" x="-1726.3" y="522.87" />
    <node id="node_256" type="priority" x="-2177.0" y="677.83" />
    <node id="node_257" type="priority" x="-1946.4" y="863.46" />
    <node id="node_258" type="priority" x="-2723.4" y="697.42" />
    <node id="node_259" type="priority" x="-2572.0" y="899.97" />
    <node id="node_260" type="priority" x="-1994.3" y="911.53" />
    <node id="node_261" type="priority" x="-2033.7" y="762.89" />
    <node id="node_262" type="priority" x="-2333.8" y="651.91" />
    <node id="node_263" type="priority" x="-3145.9" y="820.34" />
    <node id="node_264" type="priority" x="-2402.2" y="624.41" />
    <node id="node_265" type="priority" x="-1936.9" y="853.37" />
    <node id="node_266" type="priority" x="-2057.7" y="954.94" />
    <node id="node_267" type="priority" x="-2130.4" y="760.9" />
    <node id="node_268" type="priority" x="-3023.0" y="805.68" />
    <node id="node_269" type="priority" x="-2747.5" y="1065.0" />
    <node id="node_270" type="priority" x="-2417.3" y="668.12" />
    <node id="node_271" type="priority" x="-2125.0" y="765.81" />
    <node id="node_272" type="priority" x="-2626.6" y="683.2" />
    <node id="node_273" type="priority" x="-1697.9" y="514.46" />
    <node id="node_274" type="priority" x="-2973.2" y="756.46" />
    <node id="node_275" type="priority" x="-2038.2" y="918.12" />
    <node id="node_276" type="priority" x="-2600.4" y="907.69" />
    <node id="node_277" type="priority" x="-2838.4" y="713.4" />
    <node id="node_278" type="priority" x="-1945.8" y="854.43" />
    <node id="node_279" type="priority" x="-1934.9" y="1568.8" />
    <node id="node_280" type="priority" x="-2235.2" y="2162.7" />
    <node id="node_281" type="priority" x="-1915.7" y="1803.6" />
    <node id="node_282" type="priority" x="-1975.0" y="1934.3" />
    <node id="node_283" type="priority" x="-1494.9" y="1058.0" />
    <node id="node_284" type="priority" x="-1864.6" y="1498.5" />
    <node id="node_285" type="priority" x="-2063.7" y="1730.5" />
    <node id="node_286" type="priority" x="-1921.7" y="1584.3" />
    <node id="node_287" type="priority" x="-1692.8" y="1403.4" />
    <node id="node_288" type="priority" x="-1703.0" y="1322.1" />
    <node id="node_289" type="priority" x="-1464.9" y="1009.0" />
    <node id="node_290" type="priority" x="-1587.6" y="1148.1" />
    <node id="node_291" type="priority" x="-1666.8" y="1264.0" />
    <node id="node_292" type="priority" x="-1421.3" y="1040.9" />
    <node id="node_293" tl="GS_1066742878" type="traffic_light" x="-1459.1" y="1125.0" />
    <node id="node_294" type="priority" x="-1433.0" y="1048.7" />
    <node id="node_295" tl="GS_1066742913" type="traffic_light" x="-1430.6" y="1024.0" />
    <node id="node_296" type="priority" x="-1761.7" y="1001.9" />
    <node id="node_297" type="priority" x="-1964.6" y="1197.1" />
    <node id="node_298" type="priority" x="-2760.7" y="1796.0" />
    <node id="node_299" type="priority" x="-1832.0" y="1084.6" />
    <node id="node_300" type="priority" x="-1752.0" y="954.91" />
    <node id="node_301" type="priority" x="-2733.7" y="1756.1" />
    <node id="node_302" type="priority" x="-1746.7" y="959.03" />
    <node id="node_303" type="priority" x="-1858.6" y="1093.8" />
    <node id="node_304" type="priority" x="-2578.8" y="1788.4" />
    <node id="node_305" type="priority" x="-2687.0" y="1862.2" />
    <node id="node_306" type="priority" x="-2169.4" y="1359.2" />
    <node id="node_307" type="priority" x="-815.7" y="1318.0" />
    <node id="node_308" type="priority" x="-981.97" y="1735.1" />
    <node id="node_309" type="priority" x="-972.63" y="1182.5" />
    <node id="node_310" type="priority" x="-847.76" y="1509.1" />
    <node id="node_311" type="priority" x="-985.92" y="1234.6" />
    <node id="node_312" type="priority" x="-923.16" y="1698.3" />
    <node id="node_313" type="priority" x="-985.11" y="1330.0" />
    <node id="node_314" type="priority" x="-976.56" y="1239.4" />
    <node id="node_315" type="priority" x="-910.67" y="1720.9" />
    <node id="node_316" type="priority" x="-895.08" y="1247.7" />
    <node id="node_317" type="priority" x="-725.7" y="1711.2" />
    <node id="node_318" type="priority" x="-960.46" y="1260.8" />
    <node id="node_319" type="priority" x="-951.92" y="1177.2" />
    <node id="node_320" tl="GS_1067889614" type="traffic_light" x="-823.07" y="1297.4" />
    <node id="node_321" type="priority" x="-956.08" y="1164.0" />
    <node id="node_322" type="priority" x="-880.69" y="1765.5" />
    <node id="node_323" type="priority" x="-979.28" y="1155.5" />
    <node id="node_324" type="priority" x="-818.49" y="1743.9" />
    <node id="node_325" type="priority" x="-969.12" y="1163.7" />
    <node id="node_326" type="priority" x="-778.59" y="1614.3" />
    <node id="node_327" type="priority" x="-902.22" y="1428.9" />
    <node id="node_328" type="priority" x="-907.5" y="1542.6" />
    <node id="node_329" type="priority" x="-899.65" y="1229.0" />
    <node id="node_330" type="priority" x="-729.23" y="1694.6" />
    <node id="node_331" type="priority" x="-975.5" y="1244.7" />
    <node id="node_332" type="priority" x="-771.19" y="1741.9" />
    <node id="node_333" type="priority" x="-961.32" y="1266.5" />
    <node id="node_334" type="priority" x="-1013.8" y="1267.7" />
    <node id="node_335" type="priority" x="-947.05" y="1279.4" />
    <node id="node_336" type="priority" x="-816.37" y="1694.3" />
    <node id="node_337" type="priority" x="-699.81" y="1723.9" />
    <node id="node_338" type="priority" x="-840.63" y="1493.1" />
    <node id="node_339" type="priority" x="-959.14" y="1170.9" />
    <node id="node_340" type="priority" x="-867.86" y="1253.0" />
    <node id="node_341" type="priority" x="-906.91" y="1834.2" />
    <node id="node_342" type="priority" x="-944.83" y="1468.2" />
    <node id="node_343" type="priority" x="-831.71" y="1312.1" />
    <node id="node_344" type="priority" x="-970.43" y="1171.3" />
    <node id="node_345" type="priority" x="-955.59" y="1185.1" />
    <node id="node_346" type="priority" x="-938.15" y="1190.9" />
    <node id="node_347" type="priority" x="-2362.2" y="-2214.2" />
    <node id="node_348" type="priority" x="-2520.4" y="-3064.3" />
    <node id="node_349" type="priority" x="-1731.1" y="-931.22" />
    <node id="node_350" type="priority" x="-1604.6" y="-929.83" />
    <node id="node_351" type="priority" x="-1412.7" y="-466.04" />
    <node id="node_352" type="priority" x="-2546.5" y="-2808.1" />
    <node id="node_353" type="priority" x="-2322.1" y="-1833.9" />
    <node id="node_354" type="priority" x="-1893.9" y="-1353.7" />
    <node id="node_355" type="priority" x="-2718.4" y="-3183.4" />
    <node id="node_356" type="priority" x="-2567.9" y="-2699.5" />
    <node id="node_357" type="priority" x="-2470.3" y="-2643.1" />
    <node id="node_358" type="priority" x="-1901.1" y="-1419.9" />
    <node id="node_359" type="priority" x="-2429.5" y="-2380.3" />
    <node id="node_360" type="priority" x="-2388.0" y="-2900.1" />
    <node id="node_361" type="priority" x="-1825.0" y="-1012.0" />
    <node id="node_362" type="priority" x="-1767.2" y="-944.8" />
    <node id="node_363" type="priority" x="-1477.3" y="-442.64" />
    <node id="node_364" type="priority" x="-1442.4" y="-421.16" />
    <node id="node_365" type="priority" x="-1819.8" y="1482.7" />
    <node id="node_366" type="priority" x="-1916.0" y="1631.2" />
    <node id="node_367" type="priority" x="-1643.2" y="1250.8" />
    <node id="node_368" type="priority" x="-1553.1" y="1144.2" />
    <node id="node_369" type="priority" x="-1564.3" y="1155.5" />
    <node id="node_370" type="priority" x="-1677.7" y="1281.5" />
    <node id="node_371" type="priority" x="-1823.2" y="1663.8" />
    <node id="node_372" type="priority" x="-2038.9" y="1661.8" />
    <node id="node_373" type="priority" x="-1481.4" y="970.46" />
    <node id="node_374" type="priority" x="-1197.6" y="2325.0" />
    <node id="node_375" type="priority" x="-2909.4" y="7071.7" />
    <node id="node_376" type="priority" x="-1206.1" y="2277.6" />
    <node id="node_377" type="priority" x="-4423.5" y="8797.8" />
    <node id="node_378" type="priority" x="-1339.2" y="2623.2" />
    <node id="node_379" type="priority" x="-1484.5" y="974.59" />
    <node id="node_380" type="priority" x="3222.4" y="-6183.0" />
    <node id="node_381" type="priority" x="3320.8" y="-6269.4" />
    <node id="node_382" type="priority" x="3288.1" y="-6192.1" />
    <node id="node_383" type="priority" x="3286.5" y="-6181.5" />
    <node id="node_384" type="priority" x="3395.1" y="-6941.5" />
    <node id="node_385" type="priority" x="3233.5" y="-6225.5" />
    <node id="node_386" type="priority" x="3299.3" y="-6975.1" />
    <node id="node_387" type="priority" x="3299.8" y="-6960.2" />
    <node id="node_388" type="priority" x="1263.0" y="116.6" />
    <node id="node_389" type="priority" x="1338.7" y="2593.7" />
    <node id="node_390" type="priority" x="-5380.8" y="851.45" />
    <node id="node_391" type="priority" x="-5277.2" y="856.68" />
    <node id="node_392" type="priority" x="-2783.2" y="109.62" />
    <node id="node_393" type="priority" x="-2343.5" y="-176.93" />
    <node id="node_394" type="priority" x="-2783.1" y="-351.25" />
    <node id="node_395" type="priority" x="-2327.5" y="-120.52" />
    <node id="node_396" type="priority" x="-2256.8" y="1659.7" />
    <node id="node_397" type="priority" x="-1864.4" y="1300.7" />
    <node id="node_398" type="priority" x="-1554.8" y="943.1" />
    <node id="node_399" type="priority" x="-1564.3" y="945.82" />
    <node id="node_400" type="priority" x="-2107.7" y="1549.7" />
    <node id="node_401" type="priority" x="-2087.1" y="1501.3" />
    <node id="node_402" type="priority" x="-1634.0" y="1034.5" />
    <node id="node_403" type="priority" x="-1540.1" y="929.79" />
    <node id="node_404" type="priority" x="-1539.7" y="912.24" />
    <node id="node_405" type="priority" x="-1528.8" y="913.54" />
    <node id="node_406" type="priority" x="-1465.8" y="-663.76" />
    <node id="node_407" type="priority" x="-1440.0" y="-620.87" />
    <node id="node_408" type="priority" x="-1495.6" y="-727.38" />
    <node id="node_409" type="priority" x="-1521.0" y="-707.68" />
    <node id="node_410" type="priority" x="-1453.2" y="-616.84" />
    <node id="node_411" type="priority" x="-1454.2" y="-598.87" />
    <node id="node_412" type="priority" x="-81.284" y="-1123.7" />
    <node id="node_413" type="priority" x="125.3" y="-722.09" />
    <node id="node_414" type="priority" x="-723.54" y="462.01" />
    <node id="node_415" type="priority" x="569.59" y="1670.8" />
    <node id="node_416" type="priority" x="323.83" y="-443.93" />
    <node id="node_417" type="priority" x="-1195.5" y="1184.7" />
    <node id="node_418" type="priority" x="-1980.2" y="1990.4" />
    <node id="node_419" tl="GS_1163010482" type="traffic_light" x="-1234.9" y="1314.5" />
    <node id="node_420" type="priority" x="-563.61" y="52.9" />
    <node id="node_421" type="priority" x="3267.8" y="727.94" />
    <node id="node_422" type="priority" x="857.66" y="83.39" />
    <node id="node_423" tl="GS_1166168346" type="traffic_light" x="586.55" y="66.523" />
    <node id="node_424" type="priority" x="641.42" y="10.245" />
    <node id="node_425" type="priority" x="1130.4" y="274.87" />
    <node id="node_426" type="priority" x="890.4" y="112.32" />
    <node id="node_427" type="priority" x="3263.7" y="1091.0" />
    <node id="node_428" type="priority" x="439.34" y="-10.77" />
    <node id="node_429" type="priority" x="3413.3" y="859.81" />
    <node id="node_430" tl="GS_1166168462" type="traffic_light" x="450.16" y="22.621" />
    <node id="node_431" type="priority" x="1883.3" y="437.34" />
    <node id="node_432" tl="GS_1166168470" type="traffic_light" x="262.1" y="-57.86" />
    <node id="node_433" type="priority" x="942.11" y="3.8954" />
    <node id="node_434" tl="GS_1166168480" type="traffic_light" x="572.96" y="26.944" />
    <node id="node_435" type="priority" x="360.05" y="-43.778" />