<?xml version='1.0' encoding='UTF-8'?>
<nodes xmlns:xsi="http://www.w3.org/2001/XMLSchema-instance" version="0.27" xsi:noNamespaceSchemaLocation="http://sumo.dlr.de/xsd/edges_file.xsd"><node avg_slowdown_ratio="0.997840172787" id="2751313823" junction="True" old_x="8150.99" old_y="5819.53" type="priority" weight_num="3.0" weight_sum="2.99352051836" x="8162.3003234" x_displacement_sum="11.3103233999" y="5926.02437611" y_displacement_sum="106.49437611" />
    <node avg_slowdown_ratio="0.997120230382" fixed="True" id="263017729" old_x="11900.89" old_y="4926.41" type="priority" weight_num="1.0" weight_sum="0.997120230382" x="11900.89" y="4926.41" />
    <node avg_slowdown_ratio="0.996040316775" fixed="True" id="263016110" old_x="11872.3" old_y="4818.64" type="priority" weight_num="1.0" weight_sum="0.996040316775" x="11872.3" y="4818.64" />
    <node avg_slowdown_ratio="0.995680345572" fixed="True" id="2981072515" old_x="7001.68" old_y="9831.58" type="priority" weight_num="1.0" weight_sum="0.995680345572" x="7001.68" y="9831.58" />
    <node avg_slowdown_ratio="0.995680345572" fixed="True" id="4026572320" old_x="5247.66" old_y="7369.46" type="priority" weight_num="1.0" weight_sum="0.995680345572" x="5247.66" y="7369.46" />
    <node avg_slowdown_ratio="0.99532037437" fixed="True" id="263016163" junction="True" old_x="11827.89" old_y="4711.66" type="priority" weight_num="2.0" weight_sum="1.99064074874" x="11827.89" y="4711.66" />
    <node avg_slowdown_ratio="0.995280569517" fixed="True" id="cluster_1636594565_3926859714" junction="True" old_x="9334.72" old_y="11173.81" type="priority" weight_num="3.0" weight_sum="2.98584170855" x="9334.72" y="11173.81" />
    <node avg_slowdown_ratio="0.99496040317" fixed="True" id="263022603" junction="True" old_x="11912.38" old_y="4947.37" type="priority" weight_num="2.0" weight_sum="1.98992080634" x="11912.38" y="4947.37" />
    <node avg_slowdown_ratio="0.994960403168" fixed="True" id="1788613985" old_x="8083.69" old_y="9423.96" type="priority" weight_num="1.0" weight_sum="0.994960403168" x="8083.69" y="9423.96" />
    <node avg_slowdown_ratio="0.994960403168" fixed="True" id="26411228#12-AddedOnRampNode" old_x="6228.54" old_y="10019.36" type="priority" weight_num="1.0" weight_sum="0.994960403168" x="6228.54" y="10019.36" />
    <node avg_slowdown_ratio="0.994901019795" fixed="True" id="cluster_cluster_261668689_261668912_cluster_261668691_261668913" junction="True" old_x="9007.19" old_y="9070.16" tl="gneJ284" type="traffic_light" weight_num="4.0" weight_sum="3.97960407918" x="9007.19" y="9070.16" />
    <node avg_slowdown_ratio="0.994780417565" fixed="True" id="263016162" junction="True" old_x="11744.26" old_y="4540.26" type="priority" weight_num="2.0" weight_sum="1.98956083513" x="11744.26" y="4540.26" />
    <node avg_slowdown_ratio="0.994601079784" fixed="True" id="1063911843" old_x="9645.48" old_y="7265.5" type="priority" weight_num="1.0" weight_sum="0.994601079784" x="9645.48" y="7265.5" />
    <node avg_slowdown_ratio="0.994480441567" id="261763340" junction="True" old_x="7441.37" old_y="6569.24" type="priority" weight_num="3.0" weight_sum="2.9834413247" x="7826.17818087" x_displacement_sum="384.808180865" y="6183.51070591" y_displacement_sum="-385.729294089" />
    <node avg_slowdown_ratio="0.994480441563" id="261763342" junction="True" old_x="7368.47" old_y="6656.43" type="priority" weight_num="3.0" weight_sum="2.98344132469" x="7222.67936211" x_displacement_sum="-145.790637889" y="6793.30874345" y_displacement_sum="136.87874345" />
    <node avg_slowdown_ratio="0.994360955025" fixed="True" id="4173759211" junction="True" old_x="8863.36" old_y="11522.47" type="priority" weight_num="2.0" weight_sum="1.98872191005" x="8863.36" y="11522.47" />
    <node avg_slowdown_ratio="0.994240460763" fixed="True" id="400023487#4-AddedOnRampNode" old_x="5294.97" old_y="7437.99" type="priority" weight_num="1.0" weight_sum="0.994240460763" x="5294.97" y="7437.99" />
    <node avg_slowdown_ratio="0.99406047516" fixed="True" id="261702938" junction="True" old_x="5933.69" old_y="7522.52" type="priority" weight_num="2.0" weight_sum="1.98812095032" x="5933.69" y="7522.52" />
    <node avg_slowdown_ratio="0.99406047516" fixed="True" id="263016247" junction="True" old_x="11641.91" old_y="4324.79" type="priority" weight_num="2.0" weight_sum="1.98812095032" x="11641.91" y="4324.79" />
    <node avg_slowdown_ratio="0.99400119976" fixed="True" id="2927613057" old_x="8774.36" old_y="11645.26" type="priority" weight_num="1.0" weight_sum="0.99400119976" x="8774.36" y="11645.26" />
    <node avg_slowdown_ratio="0.99400119976" fixed="True" id="3162585229" old_x="9244.23" old_y="11090.36" type="priority" weight_num="1.0" weight_sum="0.99400119976" x="9244.23" y="11090.36" />
    <node avg_slowdown_ratio="0.99400119976" fixed="True" id="3976263548" old_x="14348.59" old_y="3914.64" type="priority" weight_num="1.0" weight_sum="0.99400119976" x="14348.59" y="3914.64" />
    <node avg_slowdown_ratio="0.99400119976" fixed="True" id="811037812" old_x="8963.86" old_y="9025.85" type="priority" weight_num="1.0" weight_sum="0.99400119976" x="8963.86" y="9025.85" />
    <node avg_slowdown_ratio="0.993880489561" fixed="True" id="1540504597" old_x="7103.5" old_y="10409.87" type="priority" weight_num="1.0" weight_sum="0.993880489561" x="7103.5" y="10409.87" />
    <node avg_slowdown_ratio="0.99370050396" fixed="True" id="263022704" junction="True" old_x="11305.69" old_y="5656.13" type="priority" weight_num="2.0" weight_sum="1.98740100792" x="11305.69" y="5656.13" />
    <node avg_slowdown_ratio="0.99352051836" id="4173759210" junction="True" old_x="8838.84" old_y="11521.17" type="priority" weight_num="2.0" weight_sum="1.98704103672" x="9133.2469852" x_displacement_sum="294.406985199" y="11297.6961185" y_displacement_sum="-223.473881458" />
    <node avg_slowdown_ratio="0.993520518359" fixed="True" id="2137504139" old_x="6378.61" old_y="9937.33" type="priority" weight_num="1.0" weight_sum="0.993520518359" x="6378.61" y="9937.33" />
    <node avg_slowdown_ratio="0.993520518359" fixed="True" id="318346884#9-AddedOffRampNode" old_x="11833.96" old_y="4726.28" type="priority" weight_num="1.0" weight_sum="0.993520518359" x="11833.96" y="4726.28" />
    <node avg_slowdown_ratio="0.993401319736" fixed="True" id="3510035110" old_x="8964.93" old_y="11383.58" type="priority" weight_num="1.0" weight_sum="0.993401319736" x="8964.93" y="11383.58" />
    <node avg_slowdown_ratio="0.993400887855" fixed="True" id="cluster_2927613047_2927613048_2927613049" junction="True" old_x="8857.39" old_y="11678.88" type="priority" weight_num="2.0" weight_sum="1.98680177571" x="8857.39" y="11678.88" />
    <node avg_slowdown_ratio="0.99328053756" id="263016176" junction="True" old_x="11880.05" old_y="4477.07" type="priority" weight_num="3.0" weight_sum="2.97984161268" x="11822.6392931" x_displacement_sum="-57.4107069374" y="4393.19154498" y_displacement_sum="-83.8784550248" />
    <node avg_slowdown_ratio="0.993280537557" id="3162585243" junction="True" old_x="8892.96" old_y="11216.49" type="priority" weight_num="3.0" weight_sum="2.97984161267" x="8240.50084502" x_displacement_sum="-652.459154981" y="11505.3312227" y_displacement_sum="288.841222698" />
    <node avg_slowdown_ratio="0.993160979035" fixed="True" id="2410794971" junction="True" old_x="9506.2" old_y="11291.12" type="priority" weight_num="2.0" weight_sum="1.98632195807" x="9506.2" y="11291.12" />
    <node avg_slowdown_ratio="0.993160547155" fixed="True" id="263022604" junction="True" old_x="12001.84" old_y="5151.14" type="priority" weight_num="2.0" weight_sum="1.98632109431" x="12001.84" y="5151.14" />
    <node avg_slowdown_ratio="0.993041132595" fixed="True" id="cluster_2928746235_2928747257_2928747258" junction="True" old_x="8952.34" old_y="11750.43" type="priority" weight_num="2.0" weight_sum="1.98608226519" x="8952.34" y="11750.43" />
    <node avg_slowdown_ratio="0.993040556757" id="2928747036" junction="True" old_x="8803.14" old_y="11750.65" type="priority" weight_num="3.0" weight_sum="2.97912167027" x="8284.73874084" x_displacement_sum="-518.401259159" y="11778.0175465" y_displacement_sum="27.3675464873" />
    <node avg_slowdown_ratio="0.992801439712" fixed="True" id="1065139769" old_x="6305.31" old_y="9172.54" type="priority" weight_num="1.0" weight_sum="0.992801439712" x="6305.31" y="9172.54" />
    <node avg_slowdown_ratio="0.992801439712" fixed="True" id="2927613055" old_x="8837.21" old_y="11659.89" type="priority" weight_num="1.0" weight_sum="0.992801439712" x="8837.21" y="11659.89" />
    <node avg_slowdown_ratio="0.992801439712" fixed="True" id="3926859711" old_x="9353.63" old_y="11175.86" type="priority" weight_num="1.0" weight_sum="0.992801439712" x="9353.63" y="11175.86" />
    <node avg_slowdown_ratio="0.992801439712" fixed="True" id="4173759212" old_x="8844.02" old_y="11548.63" type="priority" weight_num="1.0" weight_sum="0.992801439712" x="8844.02" y="11548.63" />
    <node avg_slowdown_ratio="0.992801439712" fixed="True" id="418671520#2-AddedOnRampNode" old_x="9156.84" old_y="9162.67" type="zipper" weight_num="1.0" weight_sum="0.992801439712" x="9156.84" y="9162.67" />
    <node avg_slowdown_ratio="0.992800575954" fixed="True" id="1320235607" old_x="12167.49" old_y="5498.38" type="priority" weight_num="1.0" weight_sum="0.992800575954" x="12167.49" y="5498.38" />
    <node avg_slowdown_ratio="0.992799279928" fixed="True" id="1038949808" old_x="6976.99" old_y="7183.1" type="priority" weight_num="1.0" weight_sum="0.992799279928" x="6976.99" y="7183.1" />
    <node avg_slowdown_ratio="0.992799279928" fixed="True" id="3881659091" old_x="18666.07" old_y="2195.48" type="priority" weight_num="1.0" weight_sum="0.992799279928" x="18666.07" y="2195.48" />
    <node avg_slowdown_ratio="0.99274097664" fixed="True" id="cluster_1636588566_3926859712_3926859713" junction="True" old_x="9377.61" old_y="11201.27" type="priority" weight_num="2.0" weight_sum="1.98548195328" x="9377.61" y="11201.27" />
    <node avg_slowdown_ratio="0.99272544231" fixed="True" id="2927613060" junction="True" old_x="8820.88" old_y="11579.91" type="priority" weight_num="2.0" weight_sum="1.98545088462" x="8820.88" y="11579.91" />
    <node avg_slowdown_ratio="0.992574257425" fixed="True" id="2861666272" junction="True" old_x="6984.3" old_y="7174.02" type="priority" weight_num="2.0" weight_sum="1.98514851485" x="6984.3" y="7174.02" />
    <node avg_slowdown_ratio="0.99256120698" fixed="True" id="262111055" junction="True" old_x="8864.46" old_y="8948.75" type="priority" weight_num="2.0" weight_sum="1.98512241396" x="8864.46" y="8948.75" />
    <node avg_slowdown_ratio="0.992560595153" id="263016232" junction="True" old_x="11962.26" old_y="4649.22" type="priority" weight_num="3.0" weight_sum="2.97768178546" x="11873.410337" x_displacement_sum="-88.8496629503" y="4753.85852745" y_displacement_sum="104.638527451" />
    <node avg_slowdown_ratio="0.99256059515" id="2410769336" junction="True" old_x="9342.28" old_y="11310.5" type="priority" weight_num="3.0" weight_sum="2.97768178545" x="8954.69067297" x_displacement_sum="-387.589327034" y="11596.8293967" y_displacement_sum="286.329396707" />
    <node avg_slowdown_ratio="0.992500221943" fixed="True" id="1061694758" junction="True" old_x="7123.69" old_y="10384.51" type="priority" weight_num="3.0" weight_sum="2.97750066583" x="7123.69" y="10384.51" />
    <node avg_slowdown_ratio="0.99239459583" fixed="True" id="1320235955" junction="True" old_x="12111.89" old_y="5385.79" tl="GS_1320235955" type="traffic_light" weight_num="2.0" weight_sum="1.98478919166" x="12111.89" y="5385.79" />
    <node avg_slowdown_ratio="0.992349234923" fixed="True" id="3987551558" old_x="7217.45" old_y="10389.01" type="priority" weight_num="1.0" weight_sum="0.992349234923" x="7217.45" y="10389.01" />
    <node avg_slowdown_ratio="0.99226061915" fixed="True" id="263022694" junction="True" old_x="11213.65" old_y="5578.7" type="priority" weight_num="2.0" weight_sum="1.9845212383" x="11213.65" y="5578.7" />
    <node avg_slowdown_ratio="0.992201559688" fixed="True" id="262111806" old_x="9071.45" old_y="9012.23" type="priority" weight_num="1.0" weight_sum="0.992201559688" x="9071.45" y="9012.23" />
    <node avg_slowdown_ratio="0.992201559688" fixed="True" id="4280981646" old_x="8922.33" old_y="11441.94" type="priority" weight_num="1.0" weight_sum="0.992201559688" x="8922.33" y="11441.94" />
    <node avg_slowdown_ratio="0.99208106543" fixed="True" id="cluster_2928746276_2928746277_2928746278_3791348652" junction="True" old_x="9103.21" old_y="11860.45" type="priority" weight_num="3.0" weight_sum="2.97624319629" x="9103.21" y="11860.45" />
    <node avg_slowdown_ratio="0.99208063355" id="3162585239" junction="True" old_x="9059.86" old_y="11190.87" type="priority" weight_num="3.0" weight_sum="2.97624190065" x="9656.76687843" x_displacement_sum="596.906878431" y="11273.9411765" y_displacement_sum="83.0711764818" />
    <node avg_slowdown_ratio="0.992034462625" fixed="True" id="261703033" junction="True" old_x="5873.46" old_y="7583.17" type="priority" weight_num="2.0" weight_sum="1.98406892525" x="5873.46" y="7583.17" />
    <node avg_slowdown_ratio="0.992034462625" fixed="True" id="261765377" junction="True" old_x="7012.6" old_y="7138.3" type="priority" weight_num="2.0" weight_sum="1.98406892525" x="7012.6" y="7138.3" />
    <node avg_slowdown_ratio="0.991901619675" fixed="True" id="288734552" junction="True" old_x="9218.91" old_y="11073.68" type="priority" weight_num="2.0" weight_sum="1.98380323935" x="9218.91" y="11073.68" />
    <node avg_slowdown_ratio="0.99190064795" fixed="True" id="1845027350" junction="True" old_x="10026.1" old_y="9959.74" type="priority" weight_num="2.0" weight_sum="1.9838012959" x="10026.1" y="9959.74" />
    <node avg_slowdown_ratio="0.99190064795" fixed="True" id="263016243" junction="True" old_x="11571.39" old_y="4171.63" type="priority" weight_num="2.0" weight_sum="1.9838012959" x="11571.39" y="4171.63" />
    <node avg_slowdown_ratio="0.99190064795" fixed="True" id="263022697" junction="True" old_x="11460.52" old_y="5782.21" type="priority" weight_num="2.0" weight_sum="1.9838012959" x="11460.52" y="5782.21" />
    <node avg_slowdown_ratio="0.991840652747" id="261765430" junction="True" old_x="7050.8" old_y="7116.03" type="priority" weight_num="3.0" weight_sum="2.97552195824" x="7137.11772595" x_displacement_sum="86.3177259463" y="6820.47623185" y_displacement_sum="-295.553768151" />
    <node avg_slowdown_ratio="0.991720662347" fixed="True" id="1268402934" old_x="5985.49" old_y="7605.37" type="priority" weight_num="1.0" weight_sum="0.991720662347" x="5985.49" y="7605.37" />
    <node avg_slowdown_ratio="0.991641196597" fixed="True" id="cluster_288734549_288734550" junction="True" old_x="9210.64" old_y="11054.67" type="priority" weight_num="3.0" weight_sum="2.97492358979" x="9210.64" y="11054.67" />
    <node avg_slowdown_ratio="0.991601679664" fixed="True" id="1067889655" old_x="9525.12" old_y="11304.68" type="priority" weight_num="1.0" weight_sum="0.991601679664" x="9525.12" y="11304.68" />
    <node avg_slowdown_ratio="0.991601679664" fixed="True" id="80576087#6-AddedOffRampNode" old_x="14312.73" old_y="3821.31" type="priority" weight_num="1.0" weight_sum="0.991601679664" x="14312.73" y="3821.31" />
    <node avg_slowdown_ratio="0.991600671947" id="1788613992" junction="True" old_x="8063.15" old_y="9479.84" type="priority" weight_num="3.0" weight_sum="2.97480201584" x="8184.93366846" x_displacement_sum="121.78366846" y="9704.03401664" y_displacement_sum="224.194016638" />
    <node avg_slowdown_ratio="0.991360691147" id="1882098843" junction="True" old_x="8822.35" old_y="11454.27" type="priority" weight_num="3.0" weight_sum="2.97408207344" x="8949.95573893" x_displacement_sum="127.605738932" y="11184.7194084" y_displacement_sum="-269.550591597" />
    <node avg_slowdown_ratio="0.991360691147" id="3883228252" junction="True" old_x="9262.73" old_y="9019.05" type="priority" weight_num="3.0" weight_sum="2.97408207344" x="9487.96789583" x_displacement_sum="225.237895827" y="9087.67207504" y_displacement_sum="68.6220750425" />
    <node avg_slowdown_ratio="0.991360691145" fixed="True" id="4059785095" old_x="13187.6" old_y="3580.52" type="priority" weight_num="1.0" weight_sum="0.991360691145" x="13187.6" y="3580.52" />
    <node avg_slowdown_ratio="0.991241276585" fixed="True" id="3830472973" junction="True" old_x="14227.65" old_y="3390.35" type="priority" weight_num="2.0" weight_sum="1.98248255317" x="14227.65" y="3390.35" />
    <node avg_slowdown_ratio="0.991120710343" id="cluster_2371517085_2409470250" junction="True" old_x="9740.39" old_y="10673.71" type="priority" weight_num="3.0" weight_sum="2.97336213103" x="9931.10842728" x_displacement_sum="190.71842728" y="10532.8959259" y_displacement_sum="-140.814074146" />
    <node avg_slowdown_ratio="0.99100179964" fixed="True" id="232754823#13-AddedOffRampNode" old_x="9322.85" old_y="11152.16" type="priority" weight_num="1.0" weight_sum="0.99100179964" x="9322.85" y="11152.16" />
    <node avg_slowdown_ratio="0.99100179964" fixed="True" id="289212922#3-AddedOffRampNode" old_x="8905.97" old_y="11464.35" type="priority" weight_num="1.0" weight_sum="0.99100179964" x="8905.97" y="11464.35" />
    <node avg_slowdown_ratio="0.99100179964" fixed="True" id="2927613053" old_x="8845.72" old_y="11602.77" type="priority" weight_num="1.0" weight_sum="0.99100179964" x="8845.72" y="11602.77" />
    <node avg_slowdown_ratio="0.99100179964" fixed="True" id="3791348659" old_x="9229.96" old_y="11995.14" type="priority" weight_num="1.0" weight_sum="0.99100179964" x="9229.96" y="11995.14" />
    <node avg_slowdown_ratio="0.99100179964" fixed="True" id="889970677" old_x="8709.93" old_y="7426.13" type="priority" weight_num="1.0" weight_sum="0.99100179964" x="8709.93" y="7426.13" />
    <node avg_slowdown_ratio="0.99100071994" fixed="True" id="263022703" junction="True" old_x="11384.22" old_y="5718.71" type="priority" weight_num="2.0" weight_sum="1.98200143988" x="11384.22" y="5718.71" />
    <node avg_slowdown_ratio="0.99094101266" fixed="True" id="2166854089" junction="True" old_x="7136.61" old_y="10393.83" type="priority" weight_num="2.0" weight_sum="1.98188202532" x="7136.61" y="10393.83" />
    <node avg_slowdown_ratio="0.990841140627" controlledInner="26485964#3 26485970#6" fixed="True" id="cluster_2137519445_2137519446" junction="True" old_x="7255.99" old_y="10878.15" tl="joinedS_26" type="traffic_light" weight_num="3.0" weight_sum="2.97252342188" x="7255.99" y="10878.15" />
    <node avg_slowdown_ratio="0.99082073434" fixed="True" id="263022733" junction="True" old_x="11535.28" old_y="5844.35" type="priority" weight_num="2.0" weight_sum="1.98164146868" x="11535.28" y="5844.35" />
    <node avg_slowdown_ratio="0.99068432761" fixed="True" id="261765414" junction="True" old_x="7348.15" old_y="6744.83" type="priority" weight_num="2.0" weight_sum="1.98136865522" x="7348.15" y="6744.83" />
    <node avg_slowdown_ratio="0.99064074874" id="3883219603" junction="True" old_x="9504.94" old_y="11309.88" type="priority" weight_num="2.0" weight_sum="1.98128149748" x="10046.6684776" x_displacement_sum="541.728477597" y="11236.5887257" y_displacement_sum="-73.2912742656" />
    <node avg_slowdown_ratio="0.990401919616" fixed="True" id="300217922" old_x="9040.54" old_y="9109.36" type="priority" weight_num="1.0" weight_sum="0.990401919616" x="9040.54" y="9109.36" />
    <node avg_slowdown_ratio="0.990401919615" fixed="True" id="cluster_4004323999_4004324000_4004508658" junction="True" old_x="14282.29" old_y="3670.23" type="priority" weight_num="2.0" weight_sum="1.98080383923" x="14282.29" y="3670.23" />
    <node avg_slowdown_ratio="0.99040076794" id="1636588574" junction="True" old_x="9375.04" old_y="11334.57" type="priority" weight_num="3.0" weight_sum="2.97120230382" x="9207.65854978" x_displacement_sum="-167.381450216" y="11789.9311216" y_displacement_sum="455.361121605" />
    <node avg_slowdown_ratio="0.99040076794" id="1875931795" junction="True" old_x="8020.88" old_y="9449.13" type="priority" weight_num="3.0" weight_sum="2.97120230382" x="7946.08351003" x_displacement_sum="-74.7964899749" y="9604.84752413" y_displacement_sum="155.717524131" />
    <node avg_slowdown_ratio="0.99040076794" id="2928747055" junction="True" old_x="8985.09" old_y="11889.17" type="priority" weight_num="3.0" weight_sum="2.97120230382" x="9196.63984176" x_displacement_sum="211.549841763" y="11767.4100587" y_displacement_sum="-121.759941283" />
    <node avg_slowdown_ratio="0.990326192185" fixed="True" id="3791348663" junction="True" old_x="9216.42" old_y="11939.18" type="priority" weight_num="2.0" weight_sum="1.98065238437" x="9216.42" y="11939.18" />
    <node avg_slowdown_ratio="0.99028077754" fixed="True" id="2569477318" junction="True" old_x="9619.69" old_y="12258.79" type="priority" weight_num="2.0" weight_sum="1.98056155508" x="9619.69" y="12258.79" />
    <node avg_slowdown_ratio="0.99027948151" fixed="True" id="1061695257" junction="True" old_x="7301.07" old_y="10267.2" type="priority" weight_num="2.0" weight_sum="1.98055896302" x="7301.07" y="10267.2" />
    <node avg_slowdown_ratio="0.990099009901" fixed="True" id="4325374010" old_x="13547.73" old_y="4136.54" type="priority" weight_num="1.0" weight_sum="0.990099009901" x="13547.73" y="4136.54" />
    <node avg_slowdown_ratio="0.989920806335" fixed="True" id="261702955" old_x="5954.75" old_y="7560.03" type="priority" weight_num="1.0" weight_sum="0.989920806335" x="5954.75" y="7560.03" />
    <node avg_slowdown_ratio="0.989920806335" fixed="True" id="262632321" junction="True" old_x="18722.35" old_y="2205.87" type="priority" weight_num="2.0" weight_sum="1.97984161267" x="18722.35" y="2205.87" />
    <node avg_slowdown_ratio="0.989920806335" fixed="True" id="3162585233" old_x="9067.86" old_y="11248.42" type="priority" weight_num="1.0" weight_sum="0.989920806335" x="9067.86" y="11248.42" />
    <node avg_slowdown_ratio="0.989920806335" fixed="True" id="gneJ316" old_x="9382.24" old_y="12059.73" type="priority" weight_num="1.0" weight_sum="0.989920806335" x="9382.24" y="12059.73" />
    <node avg_slowdown_ratio="0.989920806333" id="263022615" junction="True" old_x="11951.31" old_y="5190.48" type="priority" weight_num="3.0" weight_sum="2.969762419" x="11668.5692489" x_displacement_sum="-282.740751145" y="5160.56888162" y_displacement_sum="-29.9111183843" />
    <node avg_slowdown_ratio="0.989802039592" fixed="True" id="1807172979" old_x="8956.84" old_y="9102.93" type="priority" weight_num="1.0" weight_sum="0.989802039592" x="8956.84" y="9102.93" />
    <node avg_slowdown_ratio="0.989802039592" fixed="True" id="1845019564" old_x="9177.02" old_y="9178.15" type="priority" weight_num="1.0" weight_sum="0.989802039592" x="9177.02" y="9178.15" />
    <node avg_slowdown_ratio="0.989802039592" fixed="True" id="2928746242" old_x="8730.84" old_y="12011.52" type="priority" weight_num="1.0" weight_sum="0.989802039592" x="8730.84" y="12011.52" />
    <node avg_slowdown_ratio="0.989802039592" fixed="True" id="434371436#6-AddedOnRampNode" old_x="8944.46" old_y="9010.43" type="priority" weight_num="1.0" weight_sum="0.989802039592" x="8944.46" y="9010.43" />
    <node avg_slowdown_ratio="0.989802039592" fixed="True" id="80576087#4-AddedOnRampNode" old_x="14245.4" old_y="3488.77" type="priority" weight_num="1.0" weight_sum="0.989802039592" x="14245.4" y="3488.77" />
    <node avg_slowdown_ratio="0.989740820735" fixed="True" id="4027229989" junction="True" old_x="5902.99" old_y="7544.31" type="priority" weight_num="2.0" weight_sum="1.97948164147" x="5902.99" y="7544.31" />
    <node avg_slowdown_ratio="0.989604414005" fixed="True" id="263017588" junction="True" old_x="10452.08" old_y="5579.61" type="priority" weight_num="2.0" weight_sum="1.97920882801" x="10452.08" y="5579.61" />
    <node avg_slowdown_ratio="0.989560835133" fixed="True" id="1061694972" old_x="7295.13" old_y="10840.05" type="priority" weight_num="1.0" weight_sum="0.989560835133" x="7295.13" y="10840.05" />
    <node avg_slowdown_ratio="0.98944084473" id="2928747038" junction="True" old_x="8816.79" old_y="11761.02" type="priority" weight_num="3.0" weight_sum="2.96832253419" x="8417.87071765" x_displacement_sum="-398.919282353" y="11781.3879448" y_displacement_sum="20.3679448269" />
    <node avg_slowdown_ratio="0.98938117344" fixed="True" id="2547597103" junction="True" old_x="4469.86" old_y="7501.68" type="priority" weight_num="2.0" weight_sum="1.97876234688" x="4469.86" y="7501.68" />
    <node avg_slowdown_ratio="0.98938084953" fixed="True" id="263017739" junction="True" old_x="12040.29" old_y="5184.53" type="priority" weight_num="2.0" weight_sum="1.97876169906" x="12040.29" y="5184.53" />
    <node avg_slowdown_ratio="0.98920215957" fixed="True" id="2361777076" junction="True" old_x="9230.65" old_y="11057.28" type="priority" weight_num="2.0" weight_sum="1.97840431914" x="9230.65" y="11057.28" />
    <node avg_slowdown_ratio="0.989200863933" id="261763330" junction="True" old_x="7423.51" old_y="6553.2" type="priority" weight_num="3.0" weight_sum="2.9676025918" x="7606.07033371" x_displacement_sum="182.56033371" y="6036.99640133" y_displacement_sum="-516.203598665" />
    <node avg_slowdown_ratio="0.989200863933" id="261765361" junction="True" old_x="7115.04" old_y="7281.64" type="priority" weight_num="3.0" weight_sum="2.9676025918" x="7382.79477759" x_displacement_sum="267.754777592" y="7669.60793492" y_displacement_sum="387.967934923" />
    <node avg_slowdown_ratio="0.989200863931" fixed="True" id="1655530419" old_x="13197.7" old_y="3647.62" type="priority" weight_num="1.0" weight_sum="0.989200863931" x="13197.7" y="3647.62" />
    <node avg_slowdown_ratio="0.989101189663" fixed="True" id="4314857979" junction="True" old_x="7198.38" old_y="10417.81" type="priority" weight_num="3.0" weight_sum="2.96730356899" x="7198.38" y="10417.81" />
    <node avg_slowdown_ratio="0.988975247255" fixed="True" id="261662745" junction="True" old_x="9075.59" old_y="9105.28" type="priority" weight_num="2.0" weight_sum="1.97795049451" x="9075.59" y="9105.28" />
    <node avg_slowdown_ratio="0.98896088313" id="261763368" junction="True" old_x="7349.53" old_y="6641.23" type="priority" weight_num="3.0" weight_sum="2.96688264939" x="6993.39877039" x_displacement_sum="-356.131229613" y="6666.03493266" y_displacement_sum="24.804932656" />
    <node avg_slowdown_ratio="0.98896088313" id="262024231" junction="True" old_x="7310.33" old_y="9661.23" type="priority" weight_num="3.0" weight_sum="2.96688264939" x="7266.82318522" x_displacement_sum="-43.5068147776" y="9335.57322207" y_displacement_sum="-325.656777925" />
    <node avg_slowdown_ratio="0.98896088313" fixed="True" id="cluster_263051657_2638411603" junction="True" old_x="12275.07" old_y="5675.57" type="priority" weight_num="3.0" weight_sum="2.96688264939" x="12275.07" y="5675.57" />
    <node avg_slowdown_ratio="0.988840892729" fixed="True" id="3162585225" old_x="9187.35" old_y="11086.58" type="priority" weight_num="1.0" weight_sum="0.988840892729" x="9187.35" y="11086.58" />
    <node avg_slowdown_ratio="0.988826492125" fixed="True" id="3979022562" junction="True" old_x="7187.75" old_y="10428.91" type="priority" weight_num="2.0" weight_sum="1.97765298425" x="7187.75" y="10428.91" />
    <node avg_slowdown_ratio="0.98875103467" fixed="True" id="261836191" junction="True" old_x="9595.62" old_y="7225.38" type="priority" weight_num="2.0" weight_sum="1.97750206934" x="9595.62" y="7225.38" />
    <node avg_slowdown_ratio="0.9887495229" fixed="True" id="263022653" junction="True" old_x="11145.1" old_y="5550.27" type="priority" weight_num="2.0" weight_sum="1.9774990458" x="11145.1" y="5550.27" />
    <node avg_slowdown_ratio="0.988720902327" id="3930769120" junction="True" old_x="14508.85" old_y="3147.79" type="priority" weight_num="3.0" weight_sum="2.96616270698" x="14553.0156145" x_displacement_sum="44.1656145271" y="3443.34846992" y_displacement_sum="295.558469916" />
    <node avg_slowdown_ratio="0.988704648005" fixed="True" id="261765334" junction="True" old_x="7181.93" old_y="6942.21" type="priority" weight_num="2.0" weight_sum="1.97740929601" x="7181.93" y="6942.21" />
    <node avg_slowdown_ratio="0.9886594491" fixed="True" id="261765317" junction="True" old_x="7397.94" old_y="6686.41" type="priority" weight_num="2.0" weight_sum="1.9773188982" x="7397.94" y="6686.41" />
    <node avg_slowdown_ratio="0.988602279547" fixed="True" id="cluster_2569477378_289361580" junction="True" old_x="9257.48" old_y="11957.83" tl="cluster_2569477378_289361580" type="traffic_light" weight_num="3.0" weight_sum="2.96580683864" x="9257.48" y="11957.83" />
    <node avg_slowdown_ratio="0.988602279545" controlledInner="24156847#6 24156849#18 24157058#3 434371589#11" fixed="True" id="261674793" junction="True" old_x="8674.36" old_y="7470.63" tl="joinedS_17" type="traffic_light" weight_num="2.0" weight_sum="1.97720455909" x="8674.36" y="7470.63" />
    <node avg_slowdown_ratio="0.988481785285" fixed="True" id="3006130355" junction="True" old_x="7126.35" old_y="10496.73" type="priority" weight_num="2.0" weight_sum="1.97696357057" x="7126.35" y="10496.73" />
    <node avg_slowdown_ratio="0.988480921526" fixed="True" id="1320235549" old_x="12118.92" old_y="5365.99" type="priority" weight_num="1.0" weight_sum="0.988480921526" x="12118.92" y="5365.99" />
    <node avg_slowdown_ratio="0.988480921526" fixed="True" id="432445053#3-AddedOnRampNode" old_x="9149.04" old_y="11138.69" type="priority" weight_num="1.0" weight_sum="0.988480921526" x="9149.04" y="11138.69" />