<?xml version='1.0' encoding='UTF-8'?>
<nodes xmlns:xsi="http://www.w3.org/2001/XMLSchema-instance" version="0.27" xsi:noNamespaceSchemaLocation="http://sumo.dlr.de/xsd/nodes_file.xsd">
    <location convBoundary="2208.92,522.44,21219.92,15402.46" netOffset="-224973.31,-2700122.99" origBoundary="54.286966,24.391306,54.609531,24.591038" projParameter="+proj=utm +zone=40 +ellps=WGS84 +datum=WGS84 +units=m +no_defs" />

    <node avg_slowdown_ratio="0.0702070207021" id="-170405842-AddedOffRampNode" type="priority" weight_num="1.0" weight_sum="0.0702070207021" x="17782.67" y="3111.06" />
    <node avg_slowdown_ratio="0.442404607631" id="-227103756#2-AddedOffRampNode" type="priority" weight_num="1.0" weight_sum="0.442404607631" x="12253.07" y="10273.92" />
    <node avg_slowdown_ratio="0.96256299496" id="-243197772#5-AddedOffRampNode" type="priority" weight_num="1.0" weight_sum="0.96256299496" x="11357.37" y="11167.90" />
    <node avg_slowdown_ratio="0.653027450315" id="1003388266" tl="GS_1003388266" type="traffic_light" weight_num="2.0" weight_sum="1.30605490063" x="9211.77" y="7843.76" />
    <node avg_slowdown_ratio="0.856028794241" id="1003388268" type="priority" weight_num="1.0" weight_sum="0.856028794241" x="10104.41" y="7647.38" />
    <node avg_slowdown_ratio="0.0647870425915" id="1003388284" type="priority" weight_num="1.0" weight_sum="0.0647870425915" x="9157.79" y="7847.26" />
    <node avg_slowdown_ratio="0.311068569365" id="1003388319" tl="GS_1003388319" type="traffic_light" weight_num="2.0" weight_sum="0.622137138729" x="10172.80" y="7642.66" />
    <node avg_slowdown_ratio="0.0587882423515" id="100596053#3-AddedOffRampNode" type="priority" weight_num="1.0" weight_sum="0.0587882423515" x="8269.74" y="11974.05" />
    <node avg_slowdown_ratio="0.965806838632" id="100596053#6-AddedOffRampNode" type="priority" weight_num="1.0" weight_sum="0.965806838632" x="8712.19" y="11723.58" />
    <node avg_slowdown_ratio="0.950209958008" id="100596086#4-AddedOnRampNode" type="priority" weight_num="1.0" weight_sum="0.950209958008" x="9990.37" y="10135.54" />
    <node avg_slowdown_ratio="0.221022318215" id="1024577672" type="priority" weight_num="1.0" weight_sum="0.221022318215" x="3380.32" y="9011.83" />
    <node avg_slowdown_ratio="0.131029517638" id="1024577817" type="priority" weight_num="2.0" weight_sum="0.262059035277" x="3399.16" y="8987.87" />
    <node avg_slowdown_ratio="0.0539956803456" id="1024797232" type="priority" weight_num="1.0" weight_sum="0.0539956803456" x="3410.06" y="7794.91" />
    <node avg_slowdown_ratio="0.146970605879" id="1024797388" type="priority" weight_num="1.0" weight_sum="0.146970605879" x="2393.19" y="7618.78" />
    <node avg_slowdown_ratio="0.0" id="1024797617" type="unregulated" x="2340.72" y="8113.59" />
    <node avg_slowdown_ratio="0.104391648668" id="1024797763" type="unregulated" weight_num="1.0" weight_sum="0.104391648668" x="2343.00" y="8104.11" />
    <node avg_slowdown_ratio="0.0539956803456" id="1024798120" type="priority" weight_num="1.0" weight_sum="0.0539956803456" x="3175.71" y="7666.08" />
    <node avg_slowdown_ratio="0.379837983798" id="1026500732" type="priority" weight_num="1.0" weight_sum="0.379837983798" x="18942.91" y="3352.66" />
    <node avg_slowdown_ratio="0.199144914492" id="1026500754" type="priority" weight_num="2.0" weight_sum="0.398289828983" x="18917.19" y="3335.29" />
    <node avg_slowdown_ratio="0.481703659268" id="1026593915" type="priority" weight_num="2.0" weight_sum="0.963407318536" x="9857.99" y="11164.28" />
    <node avg_slowdown_ratio="0.57078584283" id="1026593918" type="priority" weight_num="2.0" weight_sum="1.14157168566" x="9834.30" y="11110.27" />
    <node avg_slowdown_ratio="0.242351529694" id="1026593919" type="priority" weight_num="1.0" weight_sum="0.242351529694" x="9841.70" y="11155.29" />
    <node avg_slowdown_ratio="0.0629874025195" id="1026593951" type="priority" weight_num="1.0" weight_sum="0.0629874025195" x="7382.02" y="11481.01" />
    <node avg_slowdown_ratio="0.133173365327" id="1026593953" type="priority" weight_num="1.0" weight_sum="0.133173365327" x="9908.90" y="11164.09" />
    <node avg_slowdown_ratio="0.30902502005" id="1026593958" type="priority" weight_num="2.0" weight_sum="0.6180500401" x="7387.84" y="11534.46" />
    <node avg_slowdown_ratio="0.289472559051" id="1026645559" type="priority" weight_num="2.0" weight_sum="0.578945118103" x="6784.82" y="10811.17" />
    <node avg_slowdown_ratio="0.426350896429" id="1026645578" type="priority" weight_num="2.0" weight_sum="0.852701792858" x="6458.59" y="9832.30" />
    <node avg_slowdown_ratio="0.143988480921" id="1026645624" type="priority" weight_num="2.0" weight_sum="0.287976961843" x="3603.38" y="8780.94" />
    <node avg_slowdown_ratio="0.328533717303" id="1026645661" type="priority" weight_num="3.0" weight_sum="0.985601151908" x="5878.41" y="9286.71" />
    <node avg_slowdown_ratio="0.62652987761" id="1026646011" type="priority" weight_num="2.0" weight_sum="1.25305975522" x="6501.97" y="10505.15" />
    <node avg_slowdown_ratio="0.345212383009" id="1026646185" type="priority" weight_num="2.0" weight_sum="0.690424766018" x="6741.29" y="10825.40" />
    <node avg_slowdown_ratio="0.955003599712" id="1026646224" type="priority" weight_num="1.0" weight_sum="0.955003599712" x="6511.70" y="9888.98" />
    <node avg_slowdown_ratio="0.489200863931" id="1026646233" type="priority" weight_num="1.0" weight_sum="0.489200863931" x="6526.47" y="10477.36" />
    <node avg_slowdown_ratio="0.975881929446" id="1026646302" type="priority" weight_num="1.0" weight_sum="0.975881929446" x="6526.09" y="9836.65" />
    <node avg_slowdown_ratio="0.298776097912" id="1026646387" type="priority" weight_num="2.0" weight_sum="0.597552195824" x="6530.55" y="10505.31" />
    <node avg_slowdown_ratio="0.631765012355" id="1026646515" type="priority" weight_num="2.0" weight_sum="1.26353002471" x="6472.01" y="9882.01" />
    <node avg_slowdown_ratio="0.0965806838632" id="1026714663" type="priority" weight_num="1.0" weight_sum="0.0965806838632" x="7909.94" y="11683.14" />
    <node avg_slowdown_ratio="0.125674865027" id="1026714666" type="priority" weight_num="2.0" weight_sum="0.251349730054" x="8043.99" y="12103.01" />
    <node avg_slowdown_ratio="0.0785842831434" id="1026714706" type="priority" weight_num="1.0" weight_sum="0.0785842831434" x="7750.20" y="11798.79" />
    <node avg_slowdown_ratio="0.131073785243" id="1026714719" type="priority" weight_num="2.0" weight_sum="0.262147570486" x="7161.81" y="11401.52" />
    <node avg_slowdown_ratio="0.0569886022795" id="1026714738" type="priority" weight_num="1.0" weight_sum="0.0569886022795" x="8071.20" y="11955.22" />
    <node avg_slowdown_ratio="0.0553555355536" id="1026714743" type="priority" weight_num="1.0" weight_sum="0.0553555355536" x="7788.68" y="11887.96" />
    <node avg_slowdown_ratio="0.21625674865" id="1026714899" type="priority" weight_num="2.0" weight_sum="0.4325134973" x="7831.48" y="11855.75" />
    <node avg_slowdown_ratio="0.113030957523" id="1026714967" type="priority" weight_num="2.0" weight_sum="0.226061915047" x="8140.86" y="11840.71" />
    <node avg_slowdown_ratio="0.0455908818236" id="1026714971" type="priority" weight_num="1.0" weight_sum="0.0455908818236" x="7588.17" y="11682.58" />
    <node avg_slowdown_ratio="0.428822010976" id="1026714978" type="priority" weight_num="2.0" weight_sum="0.857644021952" x="7918.79" y="11699.88" />
    <node avg_slowdown_ratio="0.882088208821" id="1027680400" type="priority" weight_num="1.0" weight_sum="0.882088208821" x="7121.61" y="11093.32" />
    <node avg_slowdown_ratio="0.980198019802" id="1027680402" type="priority" weight_num="1.0" weight_sum="0.980198019802" x="7084.51" y="11097.62" />
    <node avg_slowdown_ratio="0.89671823554" id="1027680403" type="priority" weight_num="2.0" weight_sum="1.79343647108" x="7119.69" y="11085.07" />
    <node avg_slowdown_ratio="0.466162706983" id="1027680414" type="priority" weight_num="2.0" weight_sum="0.932325413967" x="7133.02" y="11109.05" />
    <node avg_slowdown_ratio="0.662916291629" id="1027680417" type="priority" weight_num="1.0" weight_sum="0.662916291629" x="7100.36" y="11074.75" />
    <node avg_slowdown_ratio="0.987398739875" id="1027680423" type="priority" weight_num="2.0" weight_sum="1.97479747975" x="7094.10" y="11076.73" />
    <node avg_slowdown_ratio="0.9784436867" id="1027680429" type="priority" weight_num="2.0" weight_sum="1.9568873734" x="7112.67" y="11109.21" />
    <node avg_slowdown_ratio="0.579346919573" id="1027695860" type="priority" weight_num="3.0" weight_sum="1.73804075872" x="7049.96" y="11070.72" />
    <node avg_slowdown_ratio="0.983803239352" id="1027695868" type="priority" weight_num="1.0" weight_sum="0.983803239352" x="7209.46" y="10444.47" />
    <node avg_slowdown_ratio="0.94419441944" id="1027695976" type="priority" weight_num="2.0" weight_sum="1.88838883888" x="7169.47" y="10447.88" />
    <node avg_slowdown_ratio="0.363090952723" id="1032819771" type="priority" weight_num="3.0" weight_sum="1.08927285817" x="11668.64" y="8653.84" />
    <node avg_slowdown_ratio="0.341177444079" id="1038949780" type="priority" weight_num="2.0" weight_sum="0.682354888158" x="6913.69" y="7258.78" />
    <node avg_slowdown_ratio="0.96076313895" id="1038949782" type="priority" weight_num="2.0" weight_sum="1.9215262779" x="7080.37" y="7295.18" />
    <node avg_slowdown_ratio="0.97000221918" id="1038949784" type="priority" weight_num="2.0" weight_sum="1.94000443836" x="6982.34" y="7242.60" />
    <node avg_slowdown_ratio="0.97528399288" id="1038949792" type="priority" weight_num="2.0" weight_sum="1.95056798576" x="7075.49" y="7328.53" />
    <node avg_slowdown_ratio="0.289494486341" id="1038949794" type="priority" weight_num="2.0" weight_sum="0.578988972682" x="6900.13" y="7186.60" />
    <node avg_slowdown_ratio="0.977204559088" id="1038949799" type="priority" weight_num="1.0" weight_sum="0.977204559088" x="6898.50" y="7248.34" />
    <node avg_slowdown_ratio="0.969621962195" id="1038949802" type="priority" weight_num="2.0" weight_sum="1.93924392439" x="6966.82" y="7170.70" />
    <node avg_slowdown_ratio="0.979604079184" id="1038949805" type="priority" weight_num="1.0" weight_sum="0.979604079184" x="6978.46" y="7262.04" />
    <node avg_slowdown_ratio="0.992799279928" id="1038949808" type="priority" weight_num="1.0" weight_sum="0.992799279928" x="6976.99" y="7183.10" />
    <node avg_slowdown_ratio="0.971205758848" id="1038949809" type="priority" weight_num="1.0" weight_sum="0.971205758848" x="7047.07" y="7302.18" />
    <node avg_slowdown_ratio="0.962807438512" id="1038949815" type="priority" weight_num="1.0" weight_sum="0.962807438512" x="6915.29" y="7178.55" />
    <node avg_slowdown_ratio="0.954409118176" id="1038949816" type="priority" weight_num="1.0" weight_sum="0.954409118176" x="6681.34" y="6890.90" />
    <node avg_slowdown_ratio="0.953688959835" id="1038949826" type="priority" weight_num="2.0" weight_sum="1.90737791967" x="6799.24" y="7066.02" />
    <node avg_slowdown_ratio="0.314374850012" id="1039020501" type="priority" weight_num="3.0" weight_sum="0.943124550037" x="6293.03" y="6302.95" />
    <node avg_slowdown_ratio="0.183585313175" id="1039020601" type="priority" weight_num="2.0" weight_sum="0.36717062635" x="6010.84" y="6319.47" />
    <node avg_slowdown_ratio="0.248740100792" id="1039154231" type="priority" weight_num="2.0" weight_sum="0.497480201584" x="6328.24" y="6639.99" />
    <node avg_slowdown_ratio="0.38084953204" id="1039154404" type="priority" weight_num="3.0" weight_sum="1.14254859612" x="5836.26" y="6401.01" />
    <node avg_slowdown_ratio="0.399568034557" id="1039154426" type="priority" weight_num="3.0" weight_sum="1.19870410367" x="6299.97" y="6804.43" />
    <node avg_slowdown_ratio="0.0" id="1039154598" type="priority" weight_num="1.0" weight_sum="0.0" x="6172.61" y="6832.47" />
    <node avg_slowdown_ratio="0.0" id="1039154670" type="unregulated" x="6684.85" y="6076.76" />
    <node avg_slowdown_ratio="0.383729301656" id="1039154728" type="priority" weight_num="2.0" weight_sum="0.767458603311" x="6010.30" y="6369.89" />
    <node avg_slowdown_ratio="0.704343652507" id="1039154826" type="priority" weight_num="3.0" weight_sum="2.11303095752" x="6070.72" y="6520.86" />
    <node avg_slowdown_ratio="0.0611951043916" id="1039154880" type="priority" weight_num="1.0" weight_sum="0.0611951043916" x="5896.72" y="6452.21" />
    <node avg_slowdown_ratio="0.0" id="1039155143" type="unregulated" weight_num="1.0" weight_sum="0.0" x="6676.48" y="6086.16" />
    <node avg_slowdown_ratio="0.287017038637" id="1039155187" type="priority" weight_num="3.0" weight_sum="0.861051115911" x="6018.08" y="6403.34" />
    <node avg_slowdown_ratio="0.0" id="1039155231" type="priority" weight_num="1.0" weight_sum="0.0" x="5857.05" y="6423.11" />
    <node avg_slowdown_ratio="0.43916486681" id="1039155444" type="priority" weight_num="3.0" weight_sum="1.31749460043" x="5913.68" y="6401.69" />
    <node avg_slowdown_ratio="0.33909287257" id="1039155450" type="priority" weight_num="3.0" weight_sum="1.01727861771" x="5997.62" y="6425.60" />
    <node avg_slowdown_ratio="0.0626349892009" id="1039169474" type="priority" weight_num="1.0" weight_sum="0.0626349892009" x="5048.97" y="6399.88" />
    <node avg_slowdown_ratio="0.377729781617" id="1039169596" type="priority" weight_num="3.0" weight_sum="1.13318934485" x="4872.66" y="6581.57" />
    <node avg_slowdown_ratio="0.119510439165" id="1039169698" type="priority" weight_num="1.0" weight_sum="0.119510439165" x="4943.82" y="6615.80" />
    <node avg_slowdown_ratio="0.0" id="1039194280" type="priority" weight_num="1.0" weight_sum="0.0" x="6415.35" y="6161.02" />
    <node avg_slowdown_ratio="0.23134149268" id="1039211522" type="priority" weight_num="3.0" weight_sum="0.694024478041" x="6262.60" y="6337.83" />
    <node avg_slowdown_ratio="0.34221262299" id="1039211547" type="priority" weight_num="3.0" weight_sum="1.02663786897" x="6313.41" y="6279.31" />
    <node avg_slowdown_ratio="0.0" id="1039211548" type="priority" weight_num="1.0" weight_sum="0.0" x="6383.84" y="6468.26" />
    <node avg_slowdown_ratio="0.0" id="1039211649" type="priority" weight_num="1.0" weight_sum="0.0" x="6518.16" y="6450.33" />
    <node avg_slowdown_ratio="0.0" id="1039227951" type="priority" weight_num="1.0" weight_sum="0.0" x="6048.47" y="6941.43" />
    <node avg_slowdown_ratio="0.981548154815" id="1040646594" type="priority" weight_num="1.0" weight_sum="0.981548154815" x="7904.62" y="6055.78" />
    <node avg_slowdown_ratio="0.618070554355" id="1040646620" type="priority" weight_num="2.0" weight_sum="1.23614110871" x="7674.67" y="6309.04" />
    <node avg_slowdown_ratio="0.53299736021" id="1040646625" type="priority" weight_num="3.0" weight_sum="1.59899208063" x="7721.19" y="6238.22" />
    <node avg_slowdown_ratio="0.110377924415" id="1040646642" type="priority" weight_num="1.0" weight_sum="0.110377924415" x="7243.69" y="6201.12" />
    <node avg_slowdown_ratio="0.147570485903" id="1040646655" type="priority" weight_num="1.0" weight_sum="0.147570485903" x="7738.20" y="5691.62" />
    <node avg_slowdown_ratio="0.90784737221" id="1040646657" type="priority" weight_num="2.0" weight_sum="1.81569474442" x="7905.80" y="6038.14" />
    <node avg_slowdown_ratio="0.977947794779" id="1040646663" type="priority" weight_num="1.0" weight_sum="0.977947794779" x="7811.24" y="6167.52" />
    <node avg_slowdown_ratio="0.945410917816" id="1040646738" type="priority" weight_num="1.0" weight_sum="0.945410917816" x="7170.14" y="6260.69" />
    <node avg_slowdown_ratio="0.337116510092" id="1040646759" type="priority" weight_num="2.0" weight_sum="0.674233020183" x="7671.60" y="5694.32" />
    <node avg_slowdown_ratio="0.600431965443" id="1040646768" type="priority" weight_num="3.0" weight_sum="1.80129589633" x="7614.06" y="5789.93" />
    <node avg_slowdown_ratio="0.67765690922" id="1040646783" type="priority" weight_num="2.0" weight_sum="1.35531381844" x="7592.34" y="5790.36" />
    <node avg_slowdown_ratio="0.0" id="1040646784" type="priority" weight_num="1.0" weight_sum="0.0" x="7611.77" y="6368.11" />
    <node avg_slowdown_ratio="0.974347434743" id="1040646801" type="priority" weight_num="1.0" weight_sum="0.974347434743" x="7677.94" y="6324.30" />
    <node avg_slowdown_ratio="0.271658267339" id="1040646807" type="priority" weight_num="3.0" weight_sum="0.814974802016" x="7623.49" y="5797.95" />
    <node avg_slowdown_ratio="0.445033887391" id="1040646839" type="priority" weight_num="2.0" weight_sum="0.890067774782" x="7609.19" y="5770.71" />
    <node avg_slowdown_ratio="0.980203959208" id="1040646857" type="priority" weight_num="1.0" weight_sum="0.980203959208" x="7190.35" y="6194.45" />
    <node avg_slowdown_ratio="0.345812335013" id="1040646914" type="priority" weight_num="3.0" weight_sum="1.03743700504" x="7739.43" y="5896.59" />
    <node avg_slowdown_ratio="0.369363706016" id="1040646970" type="priority" weight_num="2.0" weight_sum="0.738727412033" x="7982.81" y="5897.60" />
    <node avg_slowdown_ratio="0.976597659766" id="1040646978" type="priority" weight_num="1.0" weight_sum="0.976597659766" x="7728.82" y="6266.14" />
    <node avg_slowdown_ratio="0.414296528634" id="1040647012" type="priority" weight_num="2.0" weight_sum="0.828593057267" x="7169.32" y="6199.17" />
    <node avg_slowdown_ratio="0.44084473242" id="1040647017" type="priority" weight_num="3.0" weight_sum="1.32253419726" x="7802.70" y="6140.94" />
    <node avg_slowdown_ratio="0.46220302376" id="1040647019" type="priority" weight_num="3.0" weight_sum="1.38660907128" x="7666.64" y="6303.34" />
    <node avg_slowdown_ratio="0.696542008415" id="1040647040" type="priority" weight_num="2.0" weight_sum="1.39308401683" x="7694.79" y="6305.49" />
    <node avg_slowdown_ratio="0.97704770477" id="1040647108" type="priority" weight_num="1.0" weight_sum="0.97704770477" x="7992.70" y="5956.18" />
    <node avg_slowdown_ratio="0.84197264219" id="1040647116" type="priority" weight_num="2.0" weight_sum="1.68394528438" x="7729.01" y="6244.74" />
    <node avg_slowdown_ratio="0.305088667235" id="1040647120" type="priority" weight_num="2.0" weight_sum="0.61017733447" x="7188.98" y="6267.52" />
    <node avg_slowdown_ratio="0.957023941745" id="1040647164" type="priority" weight_num="2.0" weight_sum="1.91404788349" x="7249.82" y="6244.33" />
    <node avg_slowdown_ratio="0.93754289036" id="1040647183" type="priority" weight_num="2.0" weight_sum="1.87508578072" x="7749.19" y="6241.77" />
    <node avg_slowdown_ratio="0.0" id="1040647196" type="priority" weight_num="1.0" weight_sum="0.0" x="7920.40" y="5966.91" />
    <node avg_slowdown_ratio="0.55147588193" id="1040647198" type="priority" weight_num="2.0" weight_sum="1.10295176386" x="7810.22" y="6147.33" />
    <node avg_slowdown_ratio="0.356851451883" id="1040647267" type="priority" weight_num="3.0" weight_sum="1.07055435565" x="7778.24" y="5929.61" />
    <node avg_slowdown_ratio="0.51052719249" id="1040647286" type="priority" weight_num="2.0" weight_sum="1.02105438498" x="7234.92" y="6184.84" />
    <node avg_slowdown_ratio="0.0761847630474" id="1040647299" type="priority" weight_num="1.0" weight_sum="0.0761847630474" x="7257.09" y="6277.24" />
    <node avg_slowdown_ratio="0.963280993325" id="1040647305" type="priority" weight_num="2.0" weight_sum="1.92656198665" x="7827.69" y="6147.84" />
    <node avg_slowdown_ratio="0.948587388355" id="1040661947" type="priority" weight_num="2.0" weight_sum="1.89717477671" x="8004.37" y="7222.16" />
    <node avg_slowdown_ratio="0.70146388289" id="1040661982" type="priority" weight_num="3.0" weight_sum="2.10439164867" x="7952.17" y="7151.83" />
    <node avg_slowdown_ratio="0.0" id="1040661983" type="priority" weight_num="1.0" weight_sum="0.0" x="7900.60" y="7214.52" />
    <node avg_slowdown_ratio="0.52507799376" id="1040662003" type="priority" weight_num="3.0" weight_sum="1.57523398128" x="7994.38" y="7187.97" />
    <node avg_slowdown_ratio="0.97600479904" id="1052165754" type="priority" weight_num="1.0" weight_sum="0.97600479904" x="7207.53" y="7454.43" />
    <node avg_slowdown_ratio="0.350756896326" id="1052165761" tl="GS_1052165761" type="traffic_light" weight_num="2.0" weight_sum="0.701513792651" x="9241.47" y="7917.35" />
    <node avg_slowdown_ratio="0.959808038392" id="1052165762" type="priority" weight_num="1.0" weight_sum="0.959808038392" x="6308.89" y="7892.75" />
    <node avg_slowdown_ratio="0.294936405088" id="1052165764" type="priority" weight_num="3.0" weight_sum="0.884809215263" x="8434.97" y="7000.28" />
    <node avg_slowdown_ratio="0.285817134629" id="1052165777" type="priority" weight_num="1.0" weight_sum="0.285817134629" x="8780.80" y="6625.91" />
    <node avg_slowdown_ratio="0.57499400048" id="1052165782" type="priority" weight_num="3.0" weight_sum="1.72498200144" x="8762.64" y="6647.42" />
    <node avg_slowdown_ratio="0.976604679064" id="1052165801" type="priority" weight_num="1.0" weight_sum="0.976604679064" x="8000.24" y="8205.35" />
    <node avg_slowdown_ratio="0.267338612911" id="1052165805" type="priority" weight_num="3.0" weight_sum="0.802015838732" x="6163.48" y="8165.88" />
    <node avg_slowdown_ratio="0.983203359328" id="1052165808" type="priority" weight_num="1.0" weight_sum="0.983203359328" x="7275.55" y="7459.67" />
    <node avg_slowdown_ratio="0.32562632388" id="1052165811" type="priority" weight_num="2.0" weight_sum="0.65125264776" x="6319.38" y="7957.22" />
    <node avg_slowdown_ratio="0.300368864121" id="1052165819" type="priority" weight_num="2.0" weight_sum="0.600737728242" x="5754.25" y="8645.54" />
    <node avg_slowdown_ratio="0.977204559088" id="1052165830" type="priority" weight_num="1.0" weight_sum="0.977204559088" x="7515.93" y="7748.49" />
    <node avg_slowdown_ratio="0.278131846633" id="1052165833" type="priority" weight_num="2.0" weight_sum="0.556263693265" x="8559.48" y="6596.25" />
    <node avg_slowdown_ratio="0.599202661715" id="1052165835" type="priority" weight_num="2.0" weight_sum="1.19840532343" x="7527.33" y="7816.37" />
    <node avg_slowdown_ratio="0.936412717457" id="1052165853" type="priority" weight_num="1.0" weight_sum="0.936412717457" x="6371.75" y="7894.19" />
    <node avg_slowdown_ratio="0.291136192204" id="1052165876" type="priority" weight_num="2.0" weight_sum="0.582272384407" x="7217.52" y="7529.16" />
    <node avg_slowdown_ratio="0.0539956803456" id="1052165892" type="priority" weight_num="1.0" weight_sum="0.0539956803456" x="9185.27" y="7806.75" />
    <node avg_slowdown_ratio="0.4685025198" id="1052165943" type="priority" weight_num="4.0" weight_sum="1.8740100792" x="9300.31" y="6523.37" />
    <node avg_slowdown_ratio="0.97300539892" id="1052165944" type="priority" weight_num="1.0" weight_sum="0.97300539892" x="7205.51" y="7520.59" />
    <node avg_slowdown_ratio="0.0727141828654" id="1052165945" type="priority" weight_num="1.0" weight_sum="0.0727141828654" x="8659.84" y="6562.17" />
    <node avg_slowdown_ratio="0.28437724982" id="1052165950" type="priority" weight_num="3.0" weight_sum="0.85313174946" x="9338.42" y="6530.45" />
    <node avg_slowdown_ratio="0.936412717457" id="1052165953" type="priority" weight_num="1.0" weight_sum="0.936412717457" x="7507.76" y="7811.14" />
    <node avg_slowdown_ratio="0.0" id="1052165957" type="priority" weight_num="1.0" weight_sum="0.0" x="8367.19" y="6942.82" />
    <node avg_slowdown_ratio="0.299016078714" id="1052165958" type="priority" weight_num="3.0" weight_sum="0.897048236141" x="8736.39" y="6678.51" />
    <node avg_slowdown_ratio="0.171346292297" id="1052165961" type="priority" weight_num="3.0" weight_sum="0.51403887689" x="8753.35" y="6760.96" />
    <node avg_slowdown_ratio="0.9700059988" id="1052165967" type="priority" weight_num="1.0" weight_sum="0.9700059988" x="7575.95" y="7760.32" />
    <node avg_slowdown_ratio="0.214542836573" id="1052165974" type="priority" weight_num="3.0" weight_sum="0.643628509719" x="8583.02" y="6616.25" />
    <node avg_slowdown_ratio="0.97915241434" id="1052165981" type="priority" weight_num="2.0" weight_sum="1.95830482868" x="7270.52" y="7514.61" />
    <node avg_slowdown_ratio="0.953683705303" id="1052165984" type="priority" weight_num="3.0" weight_sum="2.86105111591" x="8433.53" y="7072.36" />
    <node avg_slowdown_ratio="0.986202759448" id="1052165987" type="priority" weight_num="1.0" weight_sum="0.986202759448" x="9224.68" y="7935.87" />
    <node avg_slowdown_ratio="0.94825292367" id="1052165993" type="priority" weight_num="2.0" weight_sum="1.89650584734" x="6367.57" y="7877.49" />
    <node avg_slowdown_ratio="0.385719480766" id="1052165997" type="priority" weight_num="2.0" weight_sum="0.771438961533" x="7569.16" y="7739.89" />
    <node avg_slowdown_ratio="0.27447858763" id="1052166004" type="priority" weight_num="2.0" weight_sum="0.548957175261" x="6371.42" y="7946.20" />
    <node avg_slowdown_ratio="0.944811037792" id="1052166008" type="priority" weight_num="1.0" weight_sum="0.944811037792" x="6301.82" y="7956.69" />
    <node avg_slowdown_ratio="0.705063594913" id="1052166014" type="priority" weight_num="3.0" weight_sum="2.11519078474" x="5991.97" y="8291.10" />
    <node avg_slowdown_ratio="0.0473905218956" id="1052166021" type="priority" weight_num="1.0" weight_sum="0.0473905218956" x="9231.81" y="7851.40" />
    <node avg_slowdown_ratio="0.312667214532" id="1052166042" type="priority" weight_num="2.0" weight_sum="0.625334429064" x="6300.37" y="7910.59" />
    <node avg_slowdown_ratio="0.288696904248" id="1052166058" type="priority" weight_num="3.0" weight_sum="0.866090712744" x="8691.91" y="6640.13" />
    <node avg_slowdown_ratio="0.977204559088" id="1052166065" type="priority" weight_num="1.0" weight_sum="0.977204559088" x="5702.19" y="8659.36" />
    <node avg_slowdown_ratio="0.51178965071" id="1052166069" tl="GS_1052166069" type="traffic_light" weight_num="2.0" weight_sum="1.02357930142" x="9157.08" y="7939.01" />
    <node avg_slowdown_ratio="0.0" id="1052166093" type="priority" weight_num="1.0" weight_sum="0.0" x="8306.01" y="7017.05" />
    <node avg_slowdown_ratio="0.942411517696" id="1052166097" type="priority" weight_num="1.0" weight_sum="0.942411517696" x="6363.01" y="7958.73" />
    <node avg_slowdown_ratio="0.646508279337" id="1052166103" type="priority" weight_num="3.0" weight_sum="1.93952483801" x="8374.50" y="7074.39" />
    <node avg_slowdown_ratio="0.963401109155" id="1052166130" type="priority" weight_num="2.0" weight_sum="1.92680221831" x="7508.84" y="7761.82" />
    <node avg_slowdown_ratio="0.97847680689" id="1052166149" type="priority" weight_num="2.0" weight_sum="1.95695361378" x="7203.72" y="7476.52" />
    <node avg_slowdown_ratio="0.236621070314" id="1052166152" type="priority" weight_num="3.0" weight_sum="0.709863210943" x="6231.97" y="8222.95" />
    <node avg_slowdown_ratio="0.62506459104" id="1052166177" type="priority" weight_num="2.0" weight_sum="1.25012918208" x="8042.37" y="8202.65" />
    <node avg_slowdown_ratio="0.527477801777" id="1052166190" type="priority" weight_num="3.0" weight_sum="1.58243340533" x="8384.21" y="6957.25" />
    <node avg_slowdown_ratio="0.978404319136" id="1052166195" type="priority" weight_num="1.0" weight_sum="0.978404319136" x="7259.51" y="7526.60" />
    <node avg_slowdown_ratio="0.0" id="1052166208" type="priority" weight_num="1.0" weight_sum="0.0" x="8739.21" y="6585.56" />
    <node avg_slowdown_ratio="0.905218956209" id="1052166211" type="priority" weight_num="1.0" weight_sum="0.905218956209" x="9135.43" y="7931.03" />
    <node avg_slowdown_ratio="0.47318214543" id="1052166235" type="priority" weight_num="4.0" weight_sum="1.89272858172" x="8717.00" y="6609.57" />
    <node avg_slowdown_ratio="0.354893827715" id="1052166254" type="priority" weight_num="2.0" weight_sum="0.70978765543" x="7262.54" y="7452.91" />
    <node avg_slowdown_ratio="0.503959683227" id="1052166273" type="priority" weight_num="3.0" weight_sum="1.51187904968" x="8325.50" y="7033.38" />
    <node avg_slowdown_ratio="0.727089571285" id="1052166282" tl="GS_1052166282" type="traffic_light" weight_num="2.0" weight_sum="1.45417914257" x="9130.99" y="7857.62" />
    <node avg_slowdown_ratio="0.649568034558" id="1061694756" type="priority" weight_num="4.0" weight_sum="2.59827213823" x="7315.54" y="10277.93" />
    <node avg_slowdown_ratio="0.992500221943" id="1061694758" type="priority" weight_num="3.0" weight_sum="2.97750066583" x="7123.69" y="10384.51" />
    <node avg_slowdown_ratio="0.0" id="1061694793" type="priority" weight_num="1.0" weight_sum="0.0" x="7469.46" y="10601.46" />
    <node avg_slowdown_ratio="0.282543491302" id="1061694825" type="priority" weight_num="1.0" weight_sum="0.282543491302" x="7793.61" y="10859.97" />
    <node avg_slowdown_ratio="0.73596112311" id="1061694842" type="priority" weight_num="4.0" weight_sum="2.94384449244" x="7555.16" y="10371.96" />
    <node avg_slowdown_ratio="0.786417086633" id="1061694849" type="priority" weight_num="3.0" weight_sum="2.3592512599" x="7516.93" y="10423.52" />
    <node avg_slowdown_ratio="0.915226781857" id="1061694869" type="priority" weight_num="4.0" weight_sum="3.66090712743" x="7640.16" y="10433.72" />
    <node avg_slowdown_ratio="0.282937365011" id="1061694877" type="priority" weight_num="3.0" weight_sum="0.848812095032" x="7308.94" y="10415.26" />
    <node avg_slowdown_ratio="0.52951763859" id="1061694878" type="priority" weight_num="4.0" weight_sum="2.11807055436" x="7496.94" y="10450.49" />
    <node avg_slowdown_ratio="0.96400719856" id="1061694893" type="priority" weight_num="1.0" weight_sum="0.96400719856" x="7846.58" y="10862.03" />