<?xml version='1.0' encoding='UTF-8'?>
<nodes xmlns:xsi="http://www.w3.org/2001/XMLSchema-instance" version="0.27" xsi:noNamespaceSchemaLocation="http://sumo.dlr.de/xsd/edges_file.xsd"><node avg_slowdown_ratio="0.594672426207" id="node_10x16" junction="True" old_x="1000.0" old_y="1600.0" type="right_before_left" weight_num="3.0" weight_sum="1.78401727862" x="998.603487286" x_displacement_sum="-1.39651271416" y="1600.0" y_displacement_sum="0.0" />
    <node avg_slowdown_ratio="0.56749460043" id="node_11x16" junction="True" old_x="1100.0" old_y="1600.0" type="right_before_left" weight_num="4.0" weight_sum="2.26997840172" x="1108.07946188" x_displacement_sum="8.0794618795" y="1600.0" y_displacement_sum="0.0" />
    <node avg_slowdown_ratio="0.558675305977" id="node_09x16" junction="True" old_x="900.0" old_y="1600.0" type="right_before_left" weight_num="3.0" weight_sum="1.67602591793" x="889.41741308" x_displacement_sum="-10.5825869202" y="1600.0" y_displacement_sum="0.0" />
    <node avg_slowdown_ratio="0.54535637149" id="node_12x10" junction="True" old_x="1200.0" old_y="1000.0" type="right_before_left" weight_num="4.0" weight_sum="2.18142548596" x="1200.0" x_displacement_sum="0.0" y="1017.67345911" y_displacement_sum="17.6734591114" />
    <node avg_slowdown_ratio="0.542836573072" id="node_12x16" junction="True" old_x="1200.0" old_y="1600.0" type="right_before_left" weight_num="4.0" weight_sum="2.17134629229" x="1221.46783054" x_displacement_sum="21.4678305416" y="1600.0" y_displacement_sum="0.0" />
    <node avg_slowdown_ratio="0.52825773938" id="node_08x16" junction="True" old_x="800.0" old_y="1600.0" type="right_before_left" weight_num="4.0" weight_sum="2.11303095752" x="767.779651254" x_displacement_sum="-32.2203487456" y="1600.0" y_displacement_sum="0.0" />
    <node avg_slowdown_ratio="0.493520518357" id="node_06x09" junction="True" old_x="600.0" old_y="900.0" type="right_before_left" weight_num="4.0" weight_sum="1.97408207343" x="603.082733494" x_displacement_sum="3.08273349375" y="902.616640001" y_displacement_sum="2.61664000127" />
    <node avg_slowdown_ratio="0.478221742263" id="node_12x09" junction="True" old_x="1200.0" old_y="900.0" type="right_before_left" weight_num="4.0" weight_sum="1.91288696905" x="1200.0" x_displacement_sum="0.0" y="869.958571333" y_displacement_sum="-30.0414286674" />
    <node avg_slowdown_ratio="0.457163426927" id="node_14x10" junction="True" old_x="1400.0" old_y="1000.0" type="right_before_left" weight_num="3.0" weight_sum="1.37149028078" x="1397.38336" x_displacement_sum="-2.61664000127" y="1000.0" y_displacement_sum="0.0" />
    <node avg_slowdown_ratio="0.451943844493" id="node_13x16" junction="True" old_x="1300.0" old_y="1600.0" type="right_before_left" weight_num="4.0" weight_sum="1.80777537797" x="1329.61952348" x_displacement_sum="29.6195234838" y="1600.0" y_displacement_sum="0.0" />
    <node avg_slowdown_ratio="0.450863930885" id="node_09x09" junction="True" old_x="900.0" old_y="900.0" type="right_before_left" weight_num="4.0" weight_sum="1.80345572354" x="902.951876967" x_displacement_sum="2.95187696673" y="900.0" y_displacement_sum="0.0" />
    <node avg_slowdown_ratio="0.450683945285" id="node_16x05" junction="True" old_x="1600.0" old_y="500.0" type="right_before_left" weight_num="4.0" weight_sum="1.80273578114" x="1600.0" y="500.0" />
    <node avg_slowdown_ratio="0.41252699784" id="node_05x09" junction="True" old_x="500.0" old_y="900.0" type="right_before_left" weight_num="4.0" weight_sum="1.65010799136" x="479.293789285" x_displacement_sum="-20.7062107151" y="900.0" y_displacement_sum="0.0" />
    <node avg_slowdown_ratio="0.411987041038" id="node_08x09" junction="True" old_x="800.0" old_y="900.0" type="right_before_left" weight_num="4.0" weight_sum="1.64794816415" x="788.086740645" x_displacement_sum="-11.9132593548" y="900.0" y_displacement_sum="0.0" />
    <node avg_slowdown_ratio="0.410607151427" id="node_06x08" junction="True" old_x="600.0" old_y="800.0" type="right_before_left" weight_num="3.0" weight_sum="1.23182145428" x="600.0" x_displacement_sum="0.0" y="779.293789285" y_displacement_sum="-20.7062107151" />
    <node avg_slowdown_ratio="0.410607151427" id="node_15x10" junction="True" old_x="1500.0" old_y="1000.0" type="right_before_left" weight_num="3.0" weight_sum="1.23182145428" x="1511.11583688" x_displacement_sum="11.1158368815" y="1000.0" y_displacement_sum="0.0" />
    <node avg_slowdown_ratio="0.408747300217" id="node_16x10" junction="True" old_x="1600.0" old_y="1000.0" type="right_before_left" weight_num="4.0" weight_sum="1.63498920087" x="1602.61664" x_displacement_sum="2.61664000127" y="1000.0" y_displacement_sum="0.0" />
    <node avg_slowdown_ratio="0.399208063355" id="node_16x04" junction="True" old_x="1600.0" old_y="400.0" type="right_before_left" weight_num="4.0" weight_sum="1.59683225342" x="1600.0" x_displacement_sum="0.0" y="388.126103962" y_displacement_sum="-11.8738960378" />
    <node avg_slowdown_ratio="0.37796976242" id="node_09x12" junction="True" old_x="900.0" old_y="1200.0" type="right_before_left" weight_num="4.0" weight_sum="1.51187904968" x="900.0" y="1200.0" />
    <node avg_slowdown_ratio="0.377789776817" id="node_05x10" junction="True" old_x="500.0" old_y="1000.0" type="right_before_left" weight_num="4.0" weight_sum="1.51115910727" x="500.0" x_displacement_sum="0.0" y="1003.08273349" y_displacement_sum="3.08273349375" />
    <node avg_slowdown_ratio="0.377789776817" id="node_12x12" junction="True" old_x="1200.0" old_y="1200.0" type="right_before_left" weight_num="4.0" weight_sum="1.51115910727" x="1200.0" y="1200.0" />
    <node avg_slowdown_ratio="0.377069834415" id="node_07x09" junction="True" old_x="700.0" old_y="900.0" type="right_before_left" weight_num="4.0" weight_sum="1.50827933766" x="717.754333748" x_displacement_sum="17.7543337484" y="900.0" y_displacement_sum="0.0" />
    <node avg_slowdown_ratio="0.37634989201" id="node_10x08" junction="True" old_x="1000.0" old_y="800.0" type="right_before_left" weight_num="4.0" weight_sum="1.50539956804" x="1000.0" y="800.0" />
    <node avg_slowdown_ratio="0.375809935205" id="node_10x04" junction="True" old_x="1000.0" old_y="400.0" type="right_before_left" weight_num="4.0" weight_sum="1.50323974082" x="1000.0" y="400.0" />
    <node avg_slowdown_ratio="0.372750179985" id="node_06x10" junction="True" old_x="600.0" old_y="1000.0" type="right_before_left" weight_num="4.0" weight_sum="1.49100071994" x="600.0" x_displacement_sum="0.0" y="1020.70621072" y_displacement_sum="20.7062107151" />
    <node avg_slowdown_ratio="0.372750179985" id="node_10x05" junction="True" old_x="1000.0" old_y="500.0" type="right_before_left" weight_num="4.0" weight_sum="1.49100071994" x="1000.0" y="500.0" />
    <node avg_slowdown_ratio="0.370230381567" id="node_10x07" junction="True" old_x="1000.0" old_y="700.0" type="right_before_left" weight_num="4.0" weight_sum="1.48092152627" x="1000.0" y="700.0" />
    <node avg_slowdown_ratio="0.364830813535" id="node_16x16" junction="True" old_x="1600.0" old_y="1600.0" type="right_before_left" weight_num="4.0" weight_sum="1.45932325414" x="1600.0" y="1600.0" />
    <node avg_slowdown_ratio="0.361771058315" id="node_10x09" junction="True" old_x="1000.0" old_y="900.0" type="right_before_left" weight_num="4.0" weight_sum="1.44708423326" x="1011.91325935" x_displacement_sum="11.9132593548" y="900.0" y_displacement_sum="0.0" />
    <node avg_slowdown_ratio="0.361771058315" id="node_14x12" junction="True" old_x="1400.0" old_y="1200.0" type="right_before_left" weight_num="4.0" weight_sum="1.44708423326" x="1400.0" y="1200.0" />
    <node avg_slowdown_ratio="0.361411087115" id="node_12x05" junction="True" old_x="1200.0" old_y="500.0" type="right_before_left" weight_num="4.0" weight_sum="1.44564434846" x="1200.0" y="500.0" />
    <node avg_slowdown_ratio="0.36087113031" id="node_07x17" junction="True" old_x="700.0" old_y="1700.0" type="right_before_left" weight_num="4.0" weight_sum="1.44348452124" x="700.0" y="1700.0" />
    <node avg_slowdown_ratio="0.360151187905" id="node_07x16" junction="True" old_x="700.0" old_y="1600.0" type="right_before_left" weight_num="4.0" weight_sum="1.44060475162" x="672.883601557" x_displacement_sum="-27.1163984431" y="1600.0" y_displacement_sum="0.0" />
    <node avg_slowdown_ratio="0.357451403888" id="node_12x07" junction="True" old_x="1200.0" old_y="700.0" type="right_before_left" weight_num="4.0" weight_sum="1.42980561555" x="1200.0" y="700.0" />
    <node avg_slowdown_ratio="0.355411567073" id="node_13x10" junction="True" old_x="1300.0" old_y="1000.0" type="right_before_left" weight_num="3.0" weight_sum="1.06623470122" x="1316.76267216" x_displacement_sum="16.762672157" y="1000.0" y_displacement_sum="0.0" />
    <node avg_slowdown_ratio="0.35313174946" id="node_16x11" junction="True" old_x="1600.0" old_y="1100.0" type="right_before_left" weight_num="4.0" weight_sum="1.41252699784" x="1600.0" x_displacement_sum="0.0" y="1102.16291963" y_displacement_sum="2.16291962887" />
    <node avg_slowdown_ratio="0.352291816653" id="node_10x13" junction="True" old_x="1000.0" old_y="1300.0" type="right_before_left" weight_num="3.0" weight_sum="1.05687544996" x="1000.0" y="1300.0" />
    <node avg_slowdown_ratio="0.349172066233" id="node_11x13" junction="True" old_x="1100.0" old_y="1300.0" type="right_before_left" weight_num="3.0" weight_sum="1.0475161987" x="1100.0" y="1300.0" />
    <node avg_slowdown_ratio="0.347732181425" id="node_09x10" junction="True" old_x="900.0" old_y="1000.0" type="right_before_left" weight_num="4.0" weight_sum="1.3909287257" x="900.0" x_displacement_sum="0.0" y="1011.91325935" y_displacement_sum="11.9132593548" />
    <node avg_slowdown_ratio="0.347192224622" id="node_09x13" junction="True" old_x="900.0" old_y="1300.0" type="right_before_left" weight_num="4.0" weight_sum="1.38876889849" x="900.0" y="1300.0" />
    <node avg_slowdown_ratio="0.3439524838" id="node_10x10" junction="True" old_x="1000.0" old_y="1000.0" type="right_before_left" weight_num="4.0" weight_sum="1.3758099352" x="1000.0" y="1000.0" />
    <node avg_slowdown_ratio="0.340052795777" id="node_12x13" junction="True" old_x="1200.0" old_y="1300.0" type="right_before_left" weight_num="3.0" weight_sum="1.02015838733" x="1200.0" y="1300.0" />
    <node avg_slowdown_ratio="0.338912886967" id="node_09x14" junction="True" old_x="900.0" old_y="1400.0" type="right_before_left" weight_num="4.0" weight_sum="1.35565154787" x="900.0" y="1400.0" />
    <node avg_slowdown_ratio="0.338732901368" id="node_05x06" junction="True" old_x="500.0" old_y="600.0" type="right_before_left" weight_num="4.0" weight_sum="1.35493160547" x="500.0" y="600.0" />
    <node avg_slowdown_ratio="0.335493160548" id="node_12x04" junction="True" old_x="1200.0" old_y="400.0" type="right_before_left" weight_num="4.0" weight_sum="1.34197264219" x="1200.0" y="400.0" />
    <node avg_slowdown_ratio="0.334593232543" id="node_06x16" junction="True" old_x="600.0" old_y="1600.0" type="right_before_left" weight_num="4.0" weight_sum="1.33837293017" x="600.0" y="1600.0" />
    <node avg_slowdown_ratio="0.331893448525" id="node_07x05" junction="True" old_x="700.0" old_y="500.0" type="right_before_left" weight_num="4.0" weight_sum="1.3275737941" x="700.0" y="500.0" />
    <node avg_slowdown_ratio="0.331353491723" id="node_07x10" junction="True" old_x="700.0" old_y="1000.0" type="right_before_left" weight_num="4.0" weight_sum="1.32541396689" x="700.0" y="1000.0" />
    <node avg_slowdown_ratio="0.330093592512" id="node_14x16" junction="True" old_x="1400.0" old_y="1600.0" type="right_before_left" weight_num="4.0" weight_sum="1.32037437005" x="1412.14903092" x_displacement_sum="12.1490309182" y="1600.0" y_displacement_sum="0.0" />
    <node avg_slowdown_ratio="0.329913606912" id="node_16x07" junction="True" old_x="1600.0" old_y="700.0" type="right_before_left" weight_num="4.0" weight_sum="1.31965442765" x="1600.0" y="700.0" />
    <node avg_slowdown_ratio="0.325653947684" id="node_11x04" junction="True" old_x="1100.0" old_y="400.0" type="right_before_left" weight_num="3.0" weight_sum="0.976961843053" x="1100.0" y="400.0" />
    <node avg_slowdown_ratio="0.324454043677" id="node_06x07" junction="True" old_x="600.0" old_y="700.0" type="right_before_left" weight_num="3.0" weight_sum="0.97336213103" x="600.0" x_displacement_sum="0.0" y="697.383359999" y_displacement_sum="-2.61664000127" />
    <node avg_slowdown_ratio="0.32343412527" id="node_06x12" junction="True" old_x="600.0" old_y="1200.0" type="right_before_left" weight_num="4.0" weight_sum="1.29373650108" x="600.0" y="1200.0" />
    <node avg_slowdown_ratio="0.32343412527" id="node_16x09" junction="True" old_x="1600.0" old_y="900.0" type="right_before_left" weight_num="4.0" weight_sum="1.29373650108" x="1600.0" x_displacement_sum="0.0" y="897.837080371" y_displacement_sum="-2.16291962887" />
    <node avg_slowdown_ratio="0.322714182865" id="node_15x07" junction="True" old_x="1500.0" old_y="700.0" type="right_before_left" weight_num="4.0" weight_sum="1.29085673146" x="1500.0" y="700.0" />
    <node avg_slowdown_ratio="0.322354211663" id="node_06x06" junction="True" old_x="600.0" old_y="600.0" type="right_before_left" weight_num="4.0" weight_sum="1.28941684665" x="600.0" y="600.0" />
    <node avg_slowdown_ratio="0.320854331654" id="node_01x00" junction="True" old_x="100.0" old_y="0.0" type="right_before_left" weight_num="3.0" weight_sum="0.962562994961" x="100.0" y="0.0" />
    <node avg_slowdown_ratio="0.320554355653" id="node_10x06" junction="True" old_x="1000.0" old_y="600.0" type="right_before_left" weight_num="4.0" weight_sum="1.28221742261" x="1000.0" y="600.0" />
    <node avg_slowdown_ratio="0.32019438445" id="node_16x13" junction="True" old_x="1600.0" old_y="1300.0" type="right_before_left" weight_num="4.0" weight_sum="1.2807775378" x="1600.0" y="1300.0" />
    <node avg_slowdown_ratio="0.31869450444" id="node_10x12" junction="True" old_x="1000.0" old_y="1200.0" type="right_before_left" weight_num="3.0" weight_sum="0.956083513319" x="1000.0" y="1200.0" />
    <node avg_slowdown_ratio="0.316414686825" id="node_08x10" junction="True" old_x="800.0" old_y="1000.0" type="right_before_left" weight_num="4.0" weight_sum="1.2656587473" x="800.0" x_displacement_sum="0.0" y="1002.95187697" y_displacement_sum="2.95187696673" />
    <node avg_slowdown_ratio="0.315874730022" id="node_06x05" junction="True" old_x="600.0" old_y="500.0" type="right_before_left" weight_num="4.0" weight_sum="1.26349892009" x="600.0" y="500.0" />
    <node avg_slowdown_ratio="0.315334773218" id="node_16x12" junction="True" old_x="1600.0" old_y="1200.0" type="right_before_left" weight_num="3.0" weight_sum="0.946004319655" x="1600.0" y="1200.0" />
    <node avg_slowdown_ratio="0.314614830813" id="node_12x08" junction="True" old_x="1200.0" old_y="800.0" type="right_before_left" weight_num="4.0" weight_sum="1.25845932325" x="1200.0" x_displacement_sum="0.0" y="782.326540889" y_displacement_sum="-17.6734591114" />
    <node avg_slowdown_ratio="0.312694984401" id="node_15x16" junction="True" old_x="1500.0" old_y="1600.0" type="right_before_left" weight_num="3.0" weight_sum="0.938084953203" x="1500.0" y="1600.0" />
    <node avg_slowdown_ratio="0.3126349892" id="node_11x10" junction="True" old_x="1100.0" old_y="1000.0" type="right_before_left" weight_num="4.0" weight_sum="1.2505399568" x="1069.95857133" x_displacement_sum="-30.0414286674" y="1000.0" y_displacement_sum="0.0" />
    <node avg_slowdown_ratio="0.311915046795" id="node_05x05" junction="True" old_x="500.0" old_y="500.0" type="right_before_left" weight_num="4.0" weight_sum="1.24766018718" x="500.0" y="500.0" />
    <node avg_slowdown_ratio="0.311015118791" id="node_09x05" junction="True" old_x="900.0" old_y="500.0" type="right_before_left" weight_num="3.0" weight_sum="0.933045356372" x="900.0" y="500.0" />
    <node avg_slowdown_ratio="0.308855291578" id="node_12x11" junction="True" old_x="1200.0" old_y="1100.0" type="right_before_left" weight_num="4.0" weight_sum="1.23542116631" x="1200.0" x_displacement_sum="0.0" y="1130.04142867" y_displacement_sum="30.0414286674" />
    <node avg_slowdown_ratio="0.306695464363" id="node_17x04" junction="True" old_x="1700.0" old_y="400.0" type="right_before_left" weight_num="4.0" weight_sum="1.22678185745" x="1700.0" y="400.0" />
    <node avg_slowdown_ratio="0.30633549316" id="node_09x08" junction="True" old_x="900.0" old_y="800.0" type="right_before_left" weight_num="4.0" weight_sum="1.22534197264" x="900.0" x_displacement_sum="0.0" y="788.086740645" y_displacement_sum="-11.9132593548" />
    <node avg_slowdown_ratio="0.305495560355" id="node_19x00" junction="True" old_x="1900.0" old_y="0.0" type="right_before_left" weight_num="3.0" weight_sum="0.916486681065" x="1900.0" y="0.0" />
    <node avg_slowdown_ratio="0.302735781137" id="node_06x13" junction="True" old_x="600.0" old_y="1300.0" type="right_before_left" weight_num="4.0" weight_sum="1.21094312455" x="600.0" y="1300.0" />
    <node avg_slowdown_ratio="0.302735781137" id="node_15x09" junction="True" old_x="1500.0" old_y="900.0" type="right_before_left" weight_num="4.0" weight_sum="1.21094312455" x="1500.0" x_displacement_sum="0.0" y="897.383359999" y_displacement_sum="-2.61664000127" />
    <node avg_slowdown_ratio="0.302735781137" id="node_16x15" junction="True" old_x="1600.0" old_y="1500.0" type="right_before_left" weight_num="4.0" weight_sum="1.21094312455" x="1600.0" y="1500.0" />
    <node avg_slowdown_ratio="0.302375809935" id="node_17x10" junction="True" old_x="1700.0" old_y="1000.0" type="right_before_left" weight_num="4.0" weight_sum="1.20950323974" x="1702.16291963" x_displacement_sum="2.16291962887" y="1000.0" y_displacement_sum="0.0" />
    <node avg_slowdown_ratio="0.301835853132" id="node_04x05" junction="True" old_x="400.0" old_y="500.0" type="right_before_left" weight_num="4.0" weight_sum="1.20734341253" x="400.0" y="500.0" />
    <node avg_slowdown_ratio="0.30147588193" id="node_13x12" junction="True" old_x="1300.0" old_y="1200.0" type="right_before_left" weight_num="4.0" weight_sum="1.20590352772" x="1300.0" y="1200.0" />
    <node avg_slowdown_ratio="0.300755939525" id="node_12x06" junction="True" old_x="1200.0" old_y="600.0" type="right_before_left" weight_num="4.0" weight_sum="1.2030237581" x="1200.0" y="600.0" />
    <node avg_slowdown_ratio="0.300575953923" id="node_11x12" junction="True" old_x="1100.0" old_y="1200.0" type="right_before_left" weight_num="4.0" weight_sum="1.20230381569" x="1100.0" y="1200.0" />
    <node avg_slowdown_ratio="0.300215982722" id="node_05x16" junction="True" old_x="500.0" old_y="1600.0" type="right_before_left" weight_num="4.0" weight_sum="1.20086393089" x="500.0" y="1600.0" />
    <node avg_slowdown_ratio="0.299316054715" id="node_04x17" junction="True" old_x="400.0" old_y="1700.0" type="right_before_left" weight_num="4.0" weight_sum="1.19726421886" x="400.0" y="1700.0" />
    <node avg_slowdown_ratio="0.29841612671" id="node_10x11" junction="True" old_x="1000.0" old_y="1100.0" type="right_before_left" weight_num="4.0" weight_sum="1.19366450684" x="1000.0" y="1100.0" />
    <node avg_slowdown_ratio="0.297156227502" id="node_07x13" junction="True" old_x="700.0" old_y="1300.0" type="right_before_left" weight_num="4.0" weight_sum="1.18862491001" x="700.0" y="1300.0" />
    <node avg_slowdown_ratio="0.2969762419" id="node_03x13" junction="True" old_x="300.0" old_y="1300.0" type="right_before_left" weight_num="4.0" weight_sum="1.1879049676" x="300.0" y="1300.0" />
    <node avg_slowdown_ratio="0.296616270698" id="node_05x08" junction="True" old_x="500.0" old_y="800.0" type="right_before_left" weight_num="4.0" weight_sum="1.18646508279" x="497.383359999" x_displacement_sum="-2.61664000127" y="796.917266506" y_displacement_sum="-3.08273349375" />
    <node avg_slowdown_ratio="0.296616270698" id="node_08x05" junction="True" old_x="800.0" old_y="500.0" type="right_before_left" weight_num="4.0" weight_sum="1.18646508279" x="800.0" y="500.0" />
    <node avg_slowdown_ratio="0.296616270698" id="node_14x15" junction="True" old_x="1400.0" old_y="1500.0" type="right_before_left" weight_num="4.0" weight_sum="1.18646508279" x="1400.0" y="1500.0" />
    <node avg_slowdown_ratio="0.296256299495" id="node_04x10" junction="True" old_x="400.0" old_y="1000.0" type="right_before_left" weight_num="4.0" weight_sum="1.18502519798" x="400.0" y="1000.0" />
    <node avg_slowdown_ratio="0.294216462683" id="node_10x17" junction="True" old_x="1000.0" old_y="1700.0" type="right_before_left" weight_num="3.0" weight_sum="0.882649388048" x="999.680691359" x_displacement_sum="-0.319308640945" y="1738.018294" y_displacement_sum="38.0182940042" />
    <node avg_slowdown_ratio="0.294096472282" id="node_08x18" junction="True" old_x="800.0" old_y="1800.0" type="right_before_left" weight_num="2.0" weight_sum="0.588192944564" x="800.0" y="1800.0" />
    <node avg_slowdown_ratio="0.293196544278" id="node_13x11" junction="True" old_x="1300.0" old_y="1100.0" type="right_before_left" weight_num="4.0" weight_sum="1.17278617711" x="1300.0" y="1100.0" />
    <node avg_slowdown_ratio="0.292776577874" id="node_16x03" junction="True" old_x="1600.0" old_y="300.0" type="right_before_left" weight_num="3.0" weight_sum="0.878329733621" x="1600.0" y="300.0" />
    <node avg_slowdown_ratio="0.292476601873" id="node_06x14" junction="True" old_x="600.0" old_y="1400.0" type="right_before_left" weight_num="4.0" weight_sum="1.16990640749" x="600.0" y="1400.0" />
    <node avg_slowdown_ratio="0.291216702662" id="node_06x04" junction="True" old_x="600.0" old_y="400.0" type="right_before_left" weight_num="4.0" weight_sum="1.16486681065" x="600.0" y="400.0" />
    <node avg_slowdown_ratio="0.290856731463" id="node_12x14" junction="True" old_x="1200.0" old_y="1400.0" type="right_before_left" weight_num="4.0" weight_sum="1.16342692585" x="1200.0" y="1400.0" />
    <node avg_slowdown_ratio="0.290856731463" id="node_16x02" junction="True" old_x="1600.0" old_y="200.0" type="right_before_left" weight_num="4.0" weight_sum="1.16342692585" x="1600.0" y="200.0" />
    <node avg_slowdown_ratio="0.290316774657" id="node_07x12" junction="True" old_x="700.0" old_y="1200.0" type="right_before_left" weight_num="4.0" weight_sum="1.16126709863" x="700.0" y="1200.0" />
    <node avg_slowdown_ratio="0.289896808255" id="node_13x15" junction="True" old_x="1300.0" old_y="1500.0" type="right_before_left" weight_num="3.0" weight_sum="0.869690424766" x="1300.0" x_displacement_sum="0.0" y="1487.85096908" y_displacement_sum="-12.1490309182" />
    <node avg_slowdown_ratio="0.289596832252" id="node_11x09" junction="True" old_x="1100.0" old_y="900.0" type="right_before_left" weight_num="4.0" weight_sum="1.15838732901" x="1082.32654089" x_displacement_sum="-17.6734591114" y="900.0" y_displacement_sum="0.0" />
    <node avg_slowdown_ratio="0.289416846653" id="node_16x14" junction="True" old_x="1600.0" old_y="1400.0" type="right_before_left" weight_num="4.0" weight_sum="1.15766738661" x="1600.0" y="1400.0" />
    <node avg_slowdown_ratio="0.289416846652" id="node_09x15" junction="True" old_x="900.0" old_y="1500.0" type="right_before_left" weight_num="3.0" weight_sum="0.868250539957" x="895.006898426" x_displacement_sum="-4.9931015738" y="1462.78654968" y_displacement_sum="-37.2134503194" />
    <node avg_slowdown_ratio="0.28923686105" id="node_03x10" junction="True" old_x="300.0" old_y="1000.0" type="right_before_left" weight_num="4.0" weight_sum="1.1569474442" x="300.0" y="1000.0" />
    <node avg_slowdown_ratio="0.288696904248" id="node_12x20" junction="True" old_x="1200.0" old_y="2000.0" type="right_before_left" weight_num="3.0" weight_sum="0.866090712743" x="1200.0" y="2000.0" />
    <node avg_slowdown_ratio="0.288696904247" id="node_13x07" junction="True" old_x="1300.0" old_y="700.0" type="right_before_left" weight_num="4.0" weight_sum="1.15478761699" x="1300.0" y="700.0" />
    <node avg_slowdown_ratio="0.288456923446" id="node_10x19" junction="True" old_x="1000.0" old_y="1900.0" type="right_before_left" weight_num="3.0" weight_sum="0.865370770338" x="1000.0" y="1900.0" />
    <node avg_slowdown_ratio="0.28761699064" id="node_02x10" junction="True" old_x="200.0" old_y="1000.0" type="right_before_left" weight_num="4.0" weight_sum="1.15046796256" x="200.0" y="1000.0" />
    <node avg_slowdown_ratio="0.28761699064" id="node_10x02" junction="True" old_x="1000.0" old_y="200.0" type="right_before_left" weight_num="4.0" weight_sum="1.15046796256" x="1000.0" y="200.0" />
    <node avg_slowdown_ratio="0.286357091432" id="node_14x11" junction="True" old_x="1400.0" old_y="1100.0" type="right_before_left" weight_num="4.0" weight_sum="1.14542836573" x="1400.0" x_displacement_sum="0.0" y="1113.27875651" y_displacement_sum="13.2787565104" />
    <node avg_slowdown_ratio="0.285637149027" id="node_19x02" junction="True" old_x="1900.0" old_y="200.0" type="right_before_left" weight_num="4.0" weight_sum="1.14254859611" x="1900.0" y="200.0" />
    <node avg_slowdown_ratio="0.285337173026" id="node_04x09" junction="True" old_x="400.0" old_y="900.0" type="right_before_left" weight_num="3.0" weight_sum="0.856011519078" x="396.917266506" x_displacement_sum="-3.08273349375" y="900.0" y_displacement_sum="0.0" />
    <node avg_slowdown_ratio="0.284917206622" id="node_09x04" junction="True" old_x="900.0" old_y="400.0" type="right_before_left" weight_num="4.0" weight_sum="1.13966882649" x="900.0" y="400.0" />
    <node avg_slowdown_ratio="0.284017278617" id="node_05x12" junction="True" old_x="500.0" old_y="1200.0" type="right_before_left" weight_num="4.0" weight_sum="1.13606911447" x="500.0" y="1200.0" />
    <node avg_slowdown_ratio="0.284017278617" id="node_11x07" junction="True" old_x="1100.0" old_y="700.0" type="right_before_left" weight_num="4.0" weight_sum="1.13606911447" x="1100.0" y="700.0" />
    <node avg_slowdown_ratio="0.283657307415" id="node_04x14" junction="True" old_x="400.0" old_y="1400.0" type="right_before_left" weight_num="4.0" weight_sum="1.13462922966" x="400.0" y="1400.0" />
    <node avg_slowdown_ratio="0.283297336212" id="node_07x19" junction="True" old_x="700.0" old_y="1900.0" type="right_before_left" weight_num="4.0" weight_sum="1.13318934485" x="700.0" y="1900.0" />
    <node avg_slowdown_ratio="0.283177345812" id="node_05x20" junction="True" old_x="500.0" old_y="2000.0" type="right_before_left" weight_num="3.0" weight_sum="0.849532037437" x="500.0" y="2000.0" />
    <node avg_slowdown_ratio="0.283117350612" id="node_04x16" junction="True" old_x="400.0" old_y="1600.0" type="right_before_left" weight_num="4.0" weight_sum="1.13246940245" x="400.0" y="1600.0" />
    <node avg_slowdown_ratio="0.283117350612" id="node_10x18" junction="True" old_x="1000.0" old_y="1800.0" type="right_before_left" weight_num="4.0" weight_sum="1.13246940245" x="1000.0" y="1800.0" />
    <node avg_slowdown_ratio="0.282577393808" id="node_04x06" junction="True" old_x="400.0" old_y="600.0" type="right_before_left" weight_num="4.0" weight_sum="1.13030957523" x="400.0" y="600.0" />
    <node avg_slowdown_ratio="0.282037437005" id="node_15x04" junction="True" old_x="1500.0" old_y="400.0" type="right_before_left" weight_num="4.0" weight_sum="1.12814974802" x="1500.0" y="400.0" />
    <node avg_slowdown_ratio="0.281977441805" id="node_11x05" junction="True" old_x="1100.0" old_y="500.0" type="right_before_left" weight_num="3.0" weight_sum="0.845932325415" x="1100.0" y="500.0" />
    <node avg_slowdown_ratio="0.281857451405" id="node_04x12" junction="True" old_x="400.0" old_y="1200.0" type="right_before_left" weight_num="4.0" weight_sum="1.12742980562" x="400.0" y="1200.0" />
    <node avg_slowdown_ratio="0.281677465803" id="node_01x10" junction="True" old_x="100.0" old_y="1000.0" type="right_before_left" weight_num="4.0" weight_sum="1.12670986321" x="100.0" y="1000.0" />
    <node avg_slowdown_ratio="0.280777537797" id="node_05x07" junction="True" old_x="500.0" old_y="700.0" type="right_before_left" weight_num="3.0" weight_sum="0.842332613391" x="500.0" y="700.0" />
    <node avg_slowdown_ratio="0.279337652988" id="node_16x08" junction="True" old_x="1600.0" old_y="800.0" type="right_before_left" weight_num="3.0" weight_sum="0.838012958963" x="1600.0" y="800.0" />
    <node avg_slowdown_ratio="0.279097672186" id="node_15x11" junction="True" old_x="1500.0" old_y="1100.0" type="right_before_left" weight_num="3.0" weight_sum="0.837293016559" x="1500.0" x_displacement_sum="0.0" y="1102.61664" y_displacement_sum="2.61664000127" />
    <node avg_slowdown_ratio="0.278617710583" id="node_15x05" junction="True" old_x="1500.0" old_y="500.0" type="right_before_left" weight_num="4.0" weight_sum="1.11447084233" x="1488.12610396" x_displacement_sum="-11.8738960378" y="500.0" y_displacement_sum="0.0" />
    <node avg_slowdown_ratio="0.27789776818" id="node_04x13" junction="True" old_x="400.0" old_y="1300.0" type="right_before_left" weight_num="4.0" weight_sum="1.11159107272" x="400.0" y="1300.0" />
    <node avg_slowdown_ratio="0.277897768178" id="node_03x11" junction="True" old_x="300.0" old_y="1100.0" type="right_before_left" weight_num="3.0" weight_sum="0.833693304535" x="300.0" y="1100.0" />
    <node avg_slowdown_ratio="0.277897768178" id="node_08x17" junction="True" old_x="800.0" old_y="1700.0" type="right_before_left" weight_num="3.0" weight_sum="0.833693304535" x="800.0" x_displacement_sum="0.0" y="1727.11639844" y_displacement_sum="27.1163984431" />
    <node avg_slowdown_ratio="0.277357811375" id="node_04x15" junction="True" old_x="400.0" old_y="1500.0" type="right_before_left" weight_num="4.0" weight_sum="1.1094312455" x="400.0" y="1500.0" />