<?xml version='1.0' encoding='UTF-8'?>
<nodes xmlns:xsi="http://www.w3.org/2001/XMLSchema-instance" version="0.27" xsi:noNamespaceSchemaLocation="http://sumo.dlr.de/xsd/edges_file.xsd"><node avg_slowdown_ratio="0.594672426207" id="node_10x16" junction="True" old_x="1000.0" old_y="1600.0" type="right_before_left" weight_num="3.0" weight_sum="1.78401727862" x="998.796073334" x_displacement_sum="-1.20392666568" y="1600.0" y_displacement_sum="0.0" />
    <node avg_slowdown_ratio="0.56749460043" id="node_11x16" junction="True" old_x="1100.0" old_y="1600.0" type="right_before_left" weight_num="4.0" weight_sum="2.26997840172" x="1106.94805197" x_displacement_sum="6.94805196583" y="1600.0" y_displacement_sum="0.0" />
    <node avg_slowdown_ratio="0.558675305977" id="node_09x16" junction="True" old_x="900.0" old_y="1600.0" type="right_before_left" weight_num="3.0" weight_sum="1.67602591793" x="890.860185109" x_displacement_sum="-9.1398148907" y="1600.0" y_displacement_sum="0.0" />
    <node avg_slowdown_ratio="0.54535637149" id="node_12x10" junction="True" old_x="1200.0" old_y="1000.0" type="right_before_left" weight_num="4.0" weight_sum="2.18142548596" x="1193.59543132" x_displacement_sum="-6.40456867595" y="1034.60342876" y_displacement_sum="34.6034287643" />
    <node avg_slowdown_ratio="0.542836573072" id="node_12x16" junction="True" old_x="1200.0" old_y="1600.0" type="right_before_left" weight_num="4.0" weight_sum="2.17134629229" x="1219.16280618" x_displacement_sum="19.1628061766" y="1600.0" y_displacement_sum="0.0" />
    <node avg_slowdown_ratio="0.52825773938" id="node_08x16" junction="True" old_x="800.0" old_y="1600.0" type="right_before_left" weight_num="4.0" weight_sum="2.11303095752" x="760.229037095" x_displacement_sum="-39.7709629054" y="1600.0" y_displacement_sum="0.0" />
    <node avg_slowdown_ratio="0.493520518357" id="node_06x09" junction="True" old_x="600.0" old_y="900.0" type="right_before_left" weight_num="4.0" weight_sum="1.97408207343" x="608.732133116" x_displacement_sum="8.73213311597" y="909.42221086" y_displacement_sum="9.42221086038" />
    <node avg_slowdown_ratio="0.478221742263" id="node_12x09" junction="True" old_x="1200.0" old_y="900.0" type="right_before_left" weight_num="4.0" weight_sum="1.91288696905" x="1200.0" x_displacement_sum="0.0" y="854.396277985" y_displacement_sum="-45.6037220148" />
    <node avg_slowdown_ratio="0.457163426927" id="node_14x10" junction="True" old_x="1400.0" old_y="1000.0" type="right_before_left" weight_num="3.0" weight_sum="1.37149028078" x="1385.85211916" x_displacement_sum="-14.1478808373" y="1000.0" y_displacement_sum="0.0" />
    <node avg_slowdown_ratio="0.451943844493" id="node_13x16" junction="True" old_x="1300.0" old_y="1600.0" type="right_before_left" weight_num="4.0" weight_sum="1.80777537797" x="1345.23614579" x_displacement_sum="45.2361457938" y="1600.0" y_displacement_sum="0.0" />
    <node avg_slowdown_ratio="0.450863930885" id="node_09x09" junction="True" old_x="900.0" old_y="900.0" type="right_before_left" weight_num="4.0" weight_sum="1.80345572354" x="912.704935967" x_displacement_sum="12.7049359675" y="895.77355928" y_displacement_sum="-4.22644072023" />
    <node avg_slowdown_ratio="0.450683945285" id="node_16x05" junction="True" old_x="1600.0" old_y="500.0" type="right_before_left" weight_num="4.0" weight_sum="1.80273578114" x="1600.0" x_displacement_sum="0.0" y="517.84098264" y_displacement_sum="17.8409826398" />
    <node avg_slowdown_ratio="0.41252699784" id="node_05x09" junction="True" old_x="500.0" old_y="900.0" type="right_before_left" weight_num="4.0" weight_sum="1.65010799136" x="462.655414438" x_displacement_sum="-37.3445855618" y="887.545511221" y_displacement_sum="-12.454488779" />
    <node avg_slowdown_ratio="0.411987041038" id="node_08x09" junction="True" old_x="800.0" old_y="900.0" type="right_before_left" weight_num="4.0" weight_sum="1.64794816415" x="782.950406978" x_displacement_sum="-17.0495930216" y="900.0" y_displacement_sum="0.0" />
    <node avg_slowdown_ratio="0.410607151427" id="node_06x08" junction="True" old_x="600.0" old_y="800.0" type="right_before_left" weight_num="3.0" weight_sum="1.23182145428" x="600.0" x_displacement_sum="0.0" y="762.655414438" y_displacement_sum="-37.3445855618" />
    <node avg_slowdown_ratio="0.410607151427" id="node_15x10" junction="True" old_x="1500.0" old_y="1000.0" type="right_before_left" weight_num="3.0" weight_sum="1.23182145428" x="1510.46207033" x_displacement_sum="10.462070332" y="1000.0" y_displacement_sum="0.0" />
    <node avg_slowdown_ratio="0.408747300217" id="node_16x10" junction="True" old_x="1600.0" old_y="1000.0" type="right_before_left" weight_num="4.0" weight_sum="1.63498920087" x="1620.55244951" x_displacement_sum="20.5524495133" y="994.236571737" y_displacement_sum="-5.76342826307" />
    <node avg_slowdown_ratio="0.399208063355" id="node_16x04" junction="True" old_x="1600.0" old_y="400.0" type="right_before_left" weight_num="4.0" weight_sum="1.59683225342" x="1600.0" x_displacement_sum="0.0" y="370.720253363" y_displacement_sum="-29.2797466372" />
    <node avg_slowdown_ratio="0.37796976242" id="node_09x12" junction="True" old_x="900.0" old_y="1200.0" type="right_before_left" weight_num="4.0" weight_sum="1.51187904968" x="900.0" x_displacement_sum="0.0" y="1195.92869194" y_displacement_sum="-4.07130805788" />
    <node avg_slowdown_ratio="0.377789776817" id="node_05x10" junction="True" old_x="500.0" old_y="1000.0" type="right_before_left" weight_num="4.0" weight_sum="1.51115910727" x="484.288185631" x_displacement_sum="-15.7118143693" y="1025.58036326" y_displacement_sum="25.5803632556" />
    <node avg_slowdown_ratio="0.377789776817" id="node_12x12" junction="True" old_x="1200.0" old_y="1200.0" type="right_before_left" weight_num="4.0" weight_sum="1.51115910727" x="1200.0" x_displacement_sum="0.0" y="1198.00447525" y_displacement_sum="-1.99552474995" />
    <node avg_slowdown_ratio="0.377069834415" id="node_07x09" junction="True" old_x="700.0" old_y="900.0" type="right_before_left" weight_num="4.0" weight_sum="1.50827933766" x="716.471032817" x_displacement_sum="16.4710328172" y="900.0" y_displacement_sum="0.0" />
    <node avg_slowdown_ratio="0.37634989201" id="node_10x08" junction="True" old_x="1000.0" old_y="800.0" type="right_before_left" weight_num="4.0" weight_sum="1.50539956804" x="1000.0" x_displacement_sum="0.0" y="802.291231759" y_displacement_sum="2.29123175941" />
    <node avg_slowdown_ratio="0.375809935205" id="node_10x04" junction="True" old_x="1000.0" old_y="400.0" type="right_before_left" weight_num="4.0" weight_sum="1.50323974082" x="1000.0" x_displacement_sum="0.0" y="388.869761347" y_displacement_sum="-11.1302386529" />
    <node avg_slowdown_ratio="0.372750179985" id="node_06x10" junction="True" old_x="600.0" old_y="1000.0" type="right_before_left" weight_num="4.0" weight_sum="1.49100071994" x="612.454488779" x_displacement_sum="12.454488779" y="1037.34458556" y_displacement_sum="37.3445855618" />
    <node avg_slowdown_ratio="0.372750179985" id="node_10x05" junction="True" old_x="1000.0" old_y="500.0" type="right_before_left" weight_num="4.0" weight_sum="1.49100071994" x="1000.0" x_displacement_sum="0.0" y="511.936868007" y_displacement_sum="11.9368680073" />
    <node avg_slowdown_ratio="0.370230381567" id="node_10x07" junction="True" old_x="1000.0" old_y="700.0" type="right_before_left" weight_num="4.0" weight_sum="1.48092152627" x="1000.0" x_displacement_sum="0.0" y="687.921627082" y_displacement_sum="-12.0783729177" />
    <node avg_slowdown_ratio="0.364830813535" id="node_16x16" junction="True" old_x="1600.0" old_y="1600.0" type="right_before_left" weight_num="4.0" weight_sum="1.45932325414" x="1600.0" y="1600.0" />
    <node avg_slowdown_ratio="0.361771058315" id="node_10x09" junction="True" old_x="1000.0" old_y="900.0" type="right_before_left" weight_num="4.0" weight_sum="1.44708423326" x="1029.31624744" x_displacement_sum="29.3162474449" y="908.943347695" y_displacement_sum="8.94334769506" />
    <node avg_slowdown_ratio="0.361771058315" id="node_14x12" junction="True" old_x="1400.0" old_y="1200.0" type="right_before_left" weight_num="4.0" weight_sum="1.44708423326" x="1400.0" y="1200.0" />
    <node avg_slowdown_ratio="0.361411087115" id="node_12x05" junction="True" old_x="1200.0" old_y="500.0" type="right_before_left" weight_num="4.0" weight_sum="1.44564434846" x="1200.0" x_displacement_sum="0.0" y="500.645849024" y_displacement_sum="0.645849024062" />
    <node avg_slowdown_ratio="0.36087113031" id="node_07x17" junction="True" old_x="700.0" old_y="1700.0" type="right_before_left" weight_num="4.0" weight_sum="1.44348452124" x="688.662186516" x_displacement_sum="-11.3378134839" y="1719.06049759" y_displacement_sum="19.0604975914" />
    <node avg_slowdown_ratio="0.360151187905" id="node_07x16" junction="True" old_x="700.0" old_y="1600.0" type="right_before_left" weight_num="4.0" weight_sum="1.44060475162" x="657.332872593" x_displacement_sum="-42.6671274066" y="1592.07883726" y_displacement_sum="-7.92116273871" />
    <node avg_slowdown_ratio="0.357451403888" id="node_12x07" junction="True" old_x="1200.0" old_y="700.0" type="right_before_left" weight_num="4.0" weight_sum="1.42980561555" x="1200.0" y="700.0" />
    <node avg_slowdown_ratio="0.355411567073" id="node_13x10" junction="True" old_x="1300.0" old_y="1000.0" type="right_before_left" weight_num="3.0" weight_sum="1.06623470122" x="1316.46010476" x_displacement_sum="16.4601047645" y="1001.43569537" y_displacement_sum="1.43569537281" />
    <node avg_slowdown_ratio="0.35313174946" id="node_16x11" junction="True" old_x="1600.0" old_y="1100.0" type="right_before_left" weight_num="4.0" weight_sum="1.41252699784" x="1600.0" x_displacement_sum="0.0" y="1120.11724229" y_displacement_sum="20.1172422911" />
    <node avg_slowdown_ratio="0.352291816653" id="node_10x13" junction="True" old_x="1000.0" old_y="1300.0" type="right_before_left" weight_num="3.0" weight_sum="1.05687544996" x="999.432456116" x_displacement_sum="-0.567543883613" y="1300.0" y_displacement_sum="0.0" />
    <node avg_slowdown_ratio="0.349172066233" id="node_11x13" junction="True" old_x="1100.0" old_y="1300.0" type="right_before_left" weight_num="3.0" weight_sum="1.0475161987" x="1103.53052655" x_displacement_sum="3.53052655034" y="1300.0" y_displacement_sum="0.0" />
    <node avg_slowdown_ratio="0.347732181425" id="node_09x10" junction="True" old_x="900.0" old_y="1000.0" type="right_before_left" weight_num="4.0" weight_sum="1.3909287257" x="896.864974777" x_displacement_sum="-3.13502522264" y="1029.31624744" y_displacement_sum="29.3162474449" />
    <node avg_slowdown_ratio="0.347192224622" id="node_09x13" junction="True" old_x="900.0" old_y="1300.0" type="right_before_left" weight_num="4.0" weight_sum="1.38876889849" x="894.4739487" x_displacement_sum="-5.52605130029" y="1310.84151869" y_displacement_sum="10.8415186865" />
    <node avg_slowdown_ratio="0.3439524838" id="node_10x10" junction="True" old_x="1000.0" old_y="1000.0" type="right_before_left" weight_num="4.0" weight_sum="1.3758099352" x="1004.22644072" x_displacement_sum="4.22644072023" y="1008.16861678" y_displacement_sum="8.16861677709" />
    <node avg_slowdown_ratio="0.340052795777" id="node_12x13" junction="True" old_x="1200.0" old_y="1300.0" type="right_before_left" weight_num="3.0" weight_sum="1.02015838733" x="1204.63885194" x_displacement_sum="4.63885194149" y="1312.45448878" y_displacement_sum="12.454488779" />
    <node avg_slowdown_ratio="0.338912886967" id="node_09x14" junction="True" old_x="900.0" old_y="1400.0" type="right_before_left" weight_num="4.0" weight_sum="1.35565154787" x="900.0" x_displacement_sum="0.0" y="1404.07130806" y_displacement_sum="4.07130805788" />
    <node avg_slowdown_ratio="0.338732901368" id="node_05x06" junction="True" old_x="500.0" old_y="600.0" type="right_before_left" weight_num="4.0" weight_sum="1.35493160547" x="500.0" y="600.0" />
    <node avg_slowdown_ratio="0.335493160548" id="node_12x04" junction="True" old_x="1200.0" old_y="400.0" type="right_before_left" weight_num="4.0" weight_sum="1.34197264219" x="1200.0" x_displacement_sum="0.0" y="391.930278982" y_displacement_sum="-8.06972101784" />
    <node avg_slowdown_ratio="0.334593232543" id="node_06x16" junction="True" old_x="600.0" old_y="1600.0" type="right_before_left" weight_num="4.0" weight_sum="1.33837293017" x="592.277315893" x_displacement_sum="-7.72268410749" y="1600.0" y_displacement_sum="0.0" />
    <node avg_slowdown_ratio="0.331893448525" id="node_07x05" junction="True" old_x="700.0" old_y="500.0" type="right_before_left" weight_num="4.0" weight_sum="1.3275737941" x="700.0" y="500.0" />
    <node avg_slowdown_ratio="0.331353491723" id="node_07x10" junction="True" old_x="700.0" old_y="1000.0" type="right_before_left" weight_num="4.0" weight_sum="1.32541396689" x="715.711814369" x_displacement_sum="15.7118143693" y="1016.84823014" y_displacement_sum="16.8482301397" />
    <node avg_slowdown_ratio="0.330093592512" id="node_14x16" junction="True" old_x="1400.0" old_y="1600.0" type="right_before_left" weight_num="4.0" weight_sum="1.32037437005" x="1429.5347675" x_displacement_sum="29.534767502" y="1600.0" y_displacement_sum="0.0" />
    <node avg_slowdown_ratio="0.329913606912" id="node_16x07" junction="True" old_x="1600.0" old_y="700.0" type="right_before_left" weight_num="4.0" weight_sum="1.31965442765" x="1600.0" y="700.0" />
    <node avg_slowdown_ratio="0.325653947684" id="node_11x04" junction="True" old_x="1100.0" old_y="400.0" type="right_before_left" weight_num="3.0" weight_sum="0.976961843053" x="1111.29101898" x_displacement_sum="11.2910189832" y="400.0" y_displacement_sum="0.0" />
    <node avg_slowdown_ratio="0.324454043677" id="node_06x07" junction="True" old_x="600.0" old_y="700.0" type="right_before_left" weight_num="3.0" weight_sum="0.97336213103" x="600.0" x_displacement_sum="0.0" y="679.447550487" y_displacement_sum="-20.5524495133" />
    <node avg_slowdown_ratio="0.32343412527" id="node_06x12" junction="True" old_x="600.0" old_y="1200.0" type="right_before_left" weight_num="4.0" weight_sum="1.29373650108" x="600.0" y="1200.0" />
    <node avg_slowdown_ratio="0.32343412527" id="node_16x09" junction="True" old_x="1600.0" old_y="900.0" type="right_before_left" weight_num="4.0" weight_sum="1.29373650108" x="1600.0" x_displacement_sum="0.0" y="879.882757709" y_displacement_sum="-20.1172422911" />
    <node avg_slowdown_ratio="0.322714182865" id="node_15x07" junction="True" old_x="1500.0" old_y="700.0" type="right_before_left" weight_num="4.0" weight_sum="1.29085673146" x="1500.0" y="700.0" />
    <node avg_slowdown_ratio="0.322354211663" id="node_06x06" junction="True" old_x="600.0" old_y="600.0" type="right_before_left" weight_num="4.0" weight_sum="1.28941684665" x="601.606752203" x_displacement_sum="1.60675220333" y="600.0" y_displacement_sum="0.0" />
    <node avg_slowdown_ratio="0.320854331654" id="node_01x00" junction="True" old_x="100.0" old_y="0.0" type="right_before_left" weight_num="3.0" weight_sum="0.962562994961" x="100.0" y="0.0" />
    <node avg_slowdown_ratio="0.320554355653" id="node_10x06" junction="True" old_x="1000.0" old_y="600.0" type="right_before_left" weight_num="4.0" weight_sum="1.28221742261" x="1000.0" x_displacement_sum="0.0" y="600.670390116" y_displacement_sum="0.670390116402" />
    <node avg_slowdown_ratio="0.32019438445" id="node_16x13" junction="True" old_x="1600.0" old_y="1300.0" type="right_before_left" weight_num="4.0" weight_sum="1.2807775378" x="1600.0" y="1300.0" />
    <node avg_slowdown_ratio="0.31869450444" id="node_10x12" junction="True" old_x="1000.0" old_y="1200.0" type="right_before_left" weight_num="3.0" weight_sum="0.956083513319" x="1012.50137757" x_displacement_sum="12.5013775681" y="1194.4739487" y_displacement_sum="-5.52605130029" />
    <node avg_slowdown_ratio="0.316414686825" id="node_08x10" junction="True" old_x="800.0" old_y="1000.0" type="right_before_left" weight_num="4.0" weight_sum="1.2656587473" x="795.77355928" x_displacement_sum="-4.22644072023" y="1020.87355274" y_displacement_sum="20.8735527446" />
    <node avg_slowdown_ratio="0.315874730022" id="node_06x05" junction="True" old_x="600.0" old_y="500.0" type="right_before_left" weight_num="4.0" weight_sum="1.26349892009" x="600.0" y="500.0" />
    <node avg_slowdown_ratio="0.315334773218" id="node_16x12" junction="True" old_x="1600.0" old_y="1200.0" type="right_before_left" weight_num="3.0" weight_sum="0.946004319655" x="1600.0" x_displacement_sum="0.0" y="1205.76342826" y_displacement_sum="5.76342826307" />
    <node avg_slowdown_ratio="0.314614830813" id="node_12x08" junction="True" old_x="1200.0" old_y="800.0" type="right_before_left" weight_num="4.0" weight_sum="1.25845932325" x="1200.0" x_displacement_sum="0.0" y="772.370873184" y_displacement_sum="-27.6291268155" />
    <node avg_slowdown_ratio="0.312694984401" id="node_15x16" junction="True" old_x="1500.0" old_y="1600.0" type="right_before_left" weight_num="3.0" weight_sum="0.938084953203" x="1490.99538338" x_displacement_sum="-9.00461661951" y="1600.0" y_displacement_sum="0.0" />
    <node avg_slowdown_ratio="0.3126349892" id="node_11x10" junction="True" old_x="1100.0" old_y="1000.0" type="right_before_left" weight_num="4.0" weight_sum="1.2505399568" x="1056.09560784" x_displacement_sum="-43.904392165" y="1001.43569537" y_displacement_sum="1.43569537281" />
    <node avg_slowdown_ratio="0.311915046795" id="node_05x05" junction="True" old_x="500.0" old_y="500.0" type="right_before_left" weight_num="4.0" weight_sum="1.24766018718" x="500.0" x_displacement_sum="0.0" y="498.393247797" y_displacement_sum="-1.60675220333" />
    <node avg_slowdown_ratio="0.311015118791" id="node_09x05" junction="True" old_x="900.0" old_y="500.0" type="right_before_left" weight_num="3.0" weight_sum="0.933045356372" x="888.869761347" x_displacement_sum="-11.1302386529" y="500.0" y_displacement_sum="0.0" />
    <node avg_slowdown_ratio="0.308855291578" id="node_12x11" junction="True" old_x="1200.0" old_y="1100.0" type="right_before_left" weight_num="4.0" weight_sum="1.23542116631" x="1200.0" x_displacement_sum="0.0" y="1133.14923324" y_displacement_sum="33.1492332358" />
    <node avg_slowdown_ratio="0.306695464363" id="node_17x04" junction="True" old_x="1700.0" old_y="400.0" type="right_before_left" weight_num="4.0" weight_sum="1.22678185745" x="1717.84098264" x_displacement_sum="17.8409826398" y="400.0" y_displacement_sum="0.0" />
    <node avg_slowdown_ratio="0.30633549316" id="node_09x08" junction="True" old_x="900.0" old_y="800.0" type="right_before_left" weight_num="4.0" weight_sum="1.22534197264" x="887.921627082" x_displacement_sum="-12.0783729177" y="770.683752555" y_displacement_sum="-29.3162474449" />
    <node avg_slowdown_ratio="0.305495560355" id="node_19x00" junction="True" old_x="1900.0" old_y="0.0" type="right_before_left" weight_num="3.0" weight_sum="0.916486681065" x="1900.0" y="0.0" />
    <node avg_slowdown_ratio="0.302735781137" id="node_06x13" junction="True" old_x="600.0" old_y="1300.0" type="right_before_left" weight_num="4.0" weight_sum="1.21094312455" x="600.0" y="1300.0" />
    <node avg_slowdown_ratio="0.302735781137" id="node_15x09" junction="True" old_x="1500.0" old_y="900.0" type="right_before_left" weight_num="4.0" weight_sum="1.21094312455" x="1500.0" x_displacement_sum="0.0" y="879.447550487" y_displacement_sum="-20.5524495133" />
    <node avg_slowdown_ratio="0.302735781137" id="node_16x15" junction="True" old_x="1600.0" old_y="1500.0" type="right_before_left" weight_num="4.0" weight_sum="1.21094312455" x="1600.0" x_displacement_sum="0.0" y="1490.99538338" y_displacement_sum="-9.00461661951" />
    <node avg_slowdown_ratio="0.302375809935" id="node_17x10" junction="True" old_x="1700.0" old_y="1000.0" type="right_before_left" weight_num="4.0" weight_sum="1.20950323974" x="1720.11724229" x_displacement_sum="20.1172422911" y="1000.0" y_displacement_sum="0.0" />
    <node avg_slowdown_ratio="0.301835853132" id="node_04x05" junction="True" old_x="400.0" old_y="500.0" type="right_before_left" weight_num="4.0" weight_sum="1.20734341253" x="400.0" y="500.0" />
    <node avg_slowdown_ratio="0.30147588193" id="node_13x12" junction="True" old_x="1300.0" old_y="1200.0" type="right_before_left" weight_num="4.0" weight_sum="1.20590352772" x="1304.285872" x_displacement_sum="4.28587200191" y="1200.0" y_displacement_sum="0.0" />
    <node avg_slowdown_ratio="0.300755939525" id="node_12x06" junction="True" old_x="1200.0" old_y="600.0" type="right_before_left" weight_num="4.0" weight_sum="1.2030237581" x="1200.0" x_displacement_sum="0.0" y="601.095419069" y_displacement_sum="1.09541906904" />
    <node avg_slowdown_ratio="0.300575953923" id="node_11x12" junction="True" old_x="1100.0" old_y="1200.0" type="right_before_left" weight_num="4.0" weight_sum="1.20230381569" x="1087.54551122" x_displacement_sum="-12.454488779" y="1195.36114806" y_displacement_sum="-4.63885194149" />
    <node avg_slowdown_ratio="0.300215982722" id="node_05x16" junction="True" old_x="500.0" old_y="1600.0" type="right_before_left" weight_num="4.0" weight_sum="1.20086393089" x="499.622744538" x_displacement_sum="-0.377255462275" y="1600.0" y_displacement_sum="0.0" />
    <node avg_slowdown_ratio="0.299316054715" id="node_04x17" junction="True" old_x="400.0" old_y="1700.0" type="right_before_left" weight_num="4.0" weight_sum="1.19726421886" x="400.0" y="1700.0" />
    <node avg_slowdown_ratio="0.29841612671" id="node_10x11" junction="True" old_x="1000.0" old_y="1100.0" type="right_before_left" weight_num="4.0" weight_sum="1.19366450684" x="1000.0" x_displacement_sum="0.0" y="1103.13502522" y_displacement_sum="3.13502522264" />
    <node avg_slowdown_ratio="0.297156227502" id="node_07x13" junction="True" old_x="700.0" old_y="1300.0" type="right_before_left" weight_num="4.0" weight_sum="1.18862491001" x="700.0" y="1300.0" />
    <node avg_slowdown_ratio="0.2969762419" id="node_03x13" junction="True" old_x="300.0" old_y="1300.0" type="right_before_left" weight_num="4.0" weight_sum="1.1879049676" x="300.0" y="1300.0" />
    <node avg_slowdown_ratio="0.296616270698" id="node_05x08" junction="True" old_x="500.0" old_y="800.0" type="right_before_left" weight_num="4.0" weight_sum="1.18646508279" x="474.86597477" x_displacement_sum="-25.1340252296" y="774.419636744" y_displacement_sum="-25.5803632556" />
    <node avg_slowdown_ratio="0.296616270698" id="node_08x05" junction="True" old_x="800.0" old_y="500.0" type="right_before_left" weight_num="4.0" weight_sum="1.18646508279" x="800.0" y="500.0" />
    <node avg_slowdown_ratio="0.296616270698" id="node_14x15" junction="True" old_x="1400.0" old_y="1500.0" type="right_before_left" weight_num="4.0" weight_sum="1.18646508279" x="1400.0" y="1500.0" />
    <node avg_slowdown_ratio="0.296256299495" id="node_04x10" junction="True" old_x="400.0" old_y="1000.0" type="right_before_left" weight_num="4.0" weight_sum="1.18502519798" x="387.545511221" x_displacement_sum="-12.454488779" y="1000.0" y_displacement_sum="0.0" />
    <node avg_slowdown_ratio="0.294216462683" id="node_10x17" junction="True" old_x="1000.0" old_y="1700.0" type="right_before_left" weight_num="3.0" weight_sum="0.882649388048" x="998.482177349" x_displacement_sum="-1.51782265093" y="1787.34944396" y_displacement_sum="87.3494439595" />
    <node avg_slowdown_ratio="0.294096472282" id="node_08x18" junction="True" old_x="800.0" old_y="1800.0" type="right_before_left" weight_num="2.0" weight_sum="0.588192944564" x="800.0" y="1800.0" />
    <node avg_slowdown_ratio="0.293196544278" id="node_13x11" junction="True" old_x="1300.0" old_y="1100.0" type="right_before_left" weight_num="4.0" weight_sum="1.17278617711" x="1314.47000968" x_displacement_sum="14.4700096778" y="1120.87457835" y_displacement_sum="20.8745783538" />
    <node avg_slowdown_ratio="0.292776577874" id="node_16x03" junction="True" old_x="1600.0" old_y="300.0" type="right_before_left" weight_num="3.0" weight_sum="0.878329733621" x="1600.0" x_displacement_sum="0.0" y="282.15901736" y_displacement_sum="-17.8409826398" />
    <node avg_slowdown_ratio="0.292476601873" id="node_06x14" junction="True" old_x="600.0" old_y="1400.0" type="right_before_left" weight_num="4.0" weight_sum="1.16990640749" x="600.0" y="1400.0" />
    <node avg_slowdown_ratio="0.291216702662" id="node_06x04" junction="True" old_x="600.0" old_y="400.0" type="right_before_left" weight_num="4.0" weight_sum="1.16486681065" x="600.0" y="400.0" />
    <node avg_slowdown_ratio="0.290856731463" id="node_12x14" junction="True" old_x="1200.0" old_y="1400.0" type="right_before_left" weight_num="4.0" weight_sum="1.16342692585" x="1200.0" x_displacement_sum="0.0" y="1401.99552475" y_displacement_sum="1.99552474995" />
    <node avg_slowdown_ratio="0.290856731463" id="node_16x02" junction="True" old_x="1600.0" old_y="200.0" type="right_before_left" weight_num="4.0" weight_sum="1.16342692585" x="1600.0" y="200.0" />
    <node avg_slowdown_ratio="0.290316774657" id="node_07x12" junction="True" old_x="700.0" old_y="1200.0" type="right_before_left" weight_num="4.0" weight_sum="1.16126709863" x="700.0" y="1200.0" />
    <node avg_slowdown_ratio="0.289896808255" id="node_13x15" junction="True" old_x="1300.0" old_y="1500.0" type="right_before_left" weight_num="3.0" weight_sum="0.869690424766" x="1314.01628873" x_displacement_sum="14.0162887285" y="1456.44894377" y_displacement_sum="-43.5510562305" />
    <node avg_slowdown_ratio="0.289596832252" id="node_11x09" junction="True" old_x="1100.0" old_y="900.0" type="right_before_left" weight_num="4.0" weight_sum="1.15838732901" x="1059.09517833" x_displacement_sum="-40.904821665" y="885.529990322" y_displacement_sum="-14.4700096778" />
    <node avg_slowdown_ratio="0.289416846653" id="node_16x14" junction="True" old_x="1600.0" old_y="1400.0" type="right_before_left" weight_num="4.0" weight_sum="1.15766738661" x="1600.0" y="1400.0" />
    <node avg_slowdown_ratio="0.289416846652" id="node_09x15" junction="True" old_x="900.0" old_y="1500.0" type="right_before_left" weight_num="3.0" weight_sum="0.868250539957" x="888.517398979" x_displacement_sum="-11.4826010205" y="1420.00798388" y_displacement_sum="-79.9920161196" />
    <node avg_slowdown_ratio="0.28923686105" id="node_03x10" junction="True" old_x="300.0" old_y="1000.0" type="right_before_left" weight_num="4.0" weight_sum="1.1569474442" x="300.0" y="1000.0" />
    <node avg_slowdown_ratio="0.288696904248" id="node_12x20" junction="True" old_x="1200.0" old_y="2000.0" type="right_before_left" weight_num="3.0" weight_sum="0.866090712743" x="1200.0" y="2000.0" />
    <node avg_slowdown_ratio="0.288696904247" id="node_13x07" junction="True" old_x="1300.0" old_y="700.0" type="right_before_left" weight_num="4.0" weight_sum="1.15478761699" x="1306.97430195" x_displacement_sum="6.9743019488" y="700.0" y_displacement_sum="0.0" />
    <node avg_slowdown_ratio="0.288456923446" id="node_10x19" junction="True" old_x="1000.0" old_y="1900.0" type="right_before_left" weight_num="3.0" weight_sum="0.865370770338" x="1000.0" y="1900.0" />
    <node avg_slowdown_ratio="0.28761699064" id="node_02x10" junction="True" old_x="200.0" old_y="1000.0" type="right_before_left" weight_num="4.0" weight_sum="1.15046796256" x="200.0" y="1000.0" />
    <node avg_slowdown_ratio="0.28761699064" id="node_10x02" junction="True" old_x="1000.0" old_y="200.0" type="right_before_left" weight_num="4.0" weight_sum="1.15046796256" x="1000.0" y="200.0" />
    <node avg_slowdown_ratio="0.286357091432" id="node_14x11" junction="True" old_x="1400.0" old_y="1100.0" type="right_before_left" weight_num="4.0" weight_sum="1.14542836573" x="1400.0" x_displacement_sum="0.0" y="1122.41069585" y_displacement_sum="22.410695846" />
    <node avg_slowdown_ratio="0.285637149027" id="node_19x02" junction="True" old_x="1900.0" old_y="200.0" type="right_before_left" weight_num="4.0" weight_sum="1.14254859611" x="1900.0" y="200.0" />
    <node avg_slowdown_ratio="0.285337173026" id="node_04x09" junction="True" old_x="400.0" old_y="900.0" type="right_before_left" weight_num="3.0" weight_sum="0.856011519078" x="379.001212461" x_displacement_sum="-20.9987875393" y="900.0" y_displacement_sum="0.0" />
    <node avg_slowdown_ratio="0.284917206622" id="node_09x04" junction="True" old_x="900.0" old_y="400.0" type="right_before_left" weight_num="4.0" weight_sum="1.13966882649" x="888.063131993" x_displacement_sum="-11.9368680073" y="400.0" y_displacement_sum="0.0" />
    <node avg_slowdown_ratio="0.284017278617" id="node_05x12" junction="True" old_x="500.0" old_y="1200.0" type="right_before_left" weight_num="4.0" weight_sum="1.13606911447" x="500.0" y="1200.0" />
    <node avg_slowdown_ratio="0.284017278617" id="node_11x07" junction="True" old_x="1100.0" old_y="700.0" type="right_before_left" weight_num="4.0" weight_sum="1.13606911447" x="1103.48554659" x_displacement_sum="3.4855465877" y="700.0" y_displacement_sum="0.0" />
    <node avg_slowdown_ratio="0.283657307415" id="node_04x14" junction="True" old_x="400.0" old_y="1400.0" type="right_before_left" weight_num="4.0" weight_sum="1.13462922966" x="400.0" y="1400.0" />
    <node avg_slowdown_ratio="0.283297336212" id="node_07x19" junction="True" old_x="700.0" old_y="1900.0" type="right_before_left" weight_num="4.0" weight_sum="1.13318934485" x="700.0" y="1900.0" />
    <node avg_slowdown_ratio="0.283177345812" id="node_05x20" junction="True" old_x="500.0" old_y="2000.0" type="right_before_left" weight_num="3.0" weight_sum="0.849532037437" x="500.0" y="2000.0" />
    <node avg_slowdown_ratio="0.283117350612" id="node_04x16" junction="True" old_x="400.0" old_y="1600.0" type="right_before_left" weight_num="4.0" weight_sum="1.13246940245" x="400.0" y="1600.0" />